REMARK  Name = 
REMARK  0 active torsions:
REMARK  status: ('A' for Active; 'I' for Inactive)
REMARK                            x       y       z     vdW  Elec       q    Type
REMARK                         _______ _______ _______ _____ _____    ______ ____
ROOT
ATOM      1  N   UNL     1       2.321  -0.831  -0.048  0.00  0.00    -0.327 N 
ATOM      2  C   UNL     1       1.128  -0.137  -0.043  0.00  0.00    +0.217 A 
ATOM      3  N   UNL     1       1.178   1.154   0.245  0.00  0.00    -0.203 NA
ATOM      4  C   UNL     1      -0.005   1.757   0.242  0.00  0.00    +0.123 A 
ATOM      5  N   UNL     1      -1.177   1.180   0.003  0.00  0.00    -0.203 NA
ATOM      6  C   UNL     1      -1.098  -0.113  -0.272  0.00  0.00    +0.217 A 
ATOM      7  N   UNL     1      -2.280  -0.780  -0.521  0.00  0.00    -0.327 N 
ATOM      8  N   UNL     1       0.020  -0.824  -0.284  0.00  0.00    -0.181 NA
ATOM      9  H   UNL     1       3.166  -0.357   0.127  0.00  0.00    +0.000 HD
ATOM     10  H   UNL     1       2.327  -1.799  -0.225  0.00  0.00    +0.000 HD
ATOM     11  H   UNL     1      -3.133  -0.287  -0.521  0.00  0.00    +0.000 HD
ATOM     12  H   UNL     1      -2.272  -1.748  -0.698  0.00  0.00    +0.000 HD
ENDROOT
TORSDOF 0
