
     RDKit          3D

 13 13  0  0  0  0  0  0  0  0999 V2000
    2.3211   -0.8306   -0.0478 N   0  0  0  0  0  0  0  0  0  0  0  0
    1.1277   -0.1373   -0.0431 C   0  0  0  0  0  0  0  0  0  0  0  0
    1.1776    1.1536    0.2448 N   0  0  0  0  0  0  0  0  0  0  0  0
   -0.0054    1.7567    0.2417 C   0  0  0  0  0  0  0  0  0  0  0  0
   -1.1772    1.1797    0.0027 N   0  0  0  0  0  0  0  0  0  0  0  0
   -1.0981   -0.1127   -0.2720 C   0  0  0  0  0  0  0  0  0  0  0  0
   -2.2805   -0.7796   -0.5210 N   0  0  0  0  0  0  0  0  0  0  0  0
    0.0200   -0.8235   -0.2836 N   0  0  0  0  0  0  0  0  0  0  0  0
    2.1633   -1.8129    0.1253 H   0  0  0  0  0  0  0  0  0  0  0  0
    3.0096   -0.3575    0.5197 H   0  0  0  0  0  0  0  0  0  0  0  0
   -0.0160    2.8190    0.4593 H   0  0  0  0  0  0  0  0  0  0  0  0
   -3.0595   -0.2901   -0.1043 H   0  0  0  0  0  0  0  0  0  0  0  0
   -2.1828   -1.7647   -0.3216 H   0  0  0  0  0  0  0  0  0  0  0  0
  1  2  1  0
  2  3  2  0
  3  4  1  0
  4  5  2  0
  5  6  1  0
  6  7  1  0
  6  8  2  0
  8  2  1  0
  1  9  1  0
  1 10  1  0
  4 11  1  0
  7 12  1  0
  7 13  1  0
M  END
