REMARK  Name = 
REMARK  3 active torsions:
REMARK  status: ('A' for Active; 'I' for Inactive)
REMARK    1  A    between atoms: C_1  and  C_2
REMARK    2  A    between atoms: N_9  and  C_10
REMARK    3  A    between atoms: N_9  and  C_17
REMARK                            x       y       z     vdW  Elec       q    Type
REMARK                         _______ _______ _______ _____ _____    ______ ____
ROOT
ATOM      1  C   UNL     1      -4.616  -0.223  -0.263  0.00  0.00    -0.004 C 
ATOM      2  C   UNL     1      -3.283   0.170   0.292  0.00  0.00    +0.133 A 
ATOM      3  N   UNL     1      -2.195  -0.334  -0.296  0.00  0.00    -0.199 NA
ATOM      4  C   UNL     1      -1.001  -0.009   0.218  0.00  0.00    +0.226 A 
ATOM      5  N   UNL     1      -0.891   0.787   1.276  0.00  0.00    -0.184 NA
ATOM      6  C   UNL     1      -2.037   1.221   1.778  0.00  0.00    +0.227 A 
ATOM      7  N   UNL     1      -3.264   0.958   1.355  0.00  0.00    -0.203 NA
ATOM      8 CL   UNL     1      -1.918   2.235   3.148  0.00  0.00    -0.041 Cl
ATOM      9  N   UNL     1       0.170  -0.512  -0.395  0.00  0.00    -0.273 N 
ATOM     10  C   UNL     1      -0.059  -1.150  -1.690  0.00  0.00    +0.008 C 
ENDROOT
BRANCH   9  11
ATOM     11  C   UNL     1       1.502  -0.203  -0.043  0.00  0.00    +0.036 A 
ATOM     12  C   UNL     1       1.906  -0.182   1.304  0.00  0.00    -0.039 A 
ATOM     13  C   UNL     1       3.222   0.117   1.674  0.00  0.00    -0.042 A 
ATOM     14  C   UNL     1       4.165   0.404   0.695  0.00  0.00    +0.041 A 
ATOM     15  C   UNL     1       3.801   0.392  -0.647  0.00  0.00    -0.042 A 
ATOM     16  C   UNL     1       2.482   0.091  -1.009  0.00  0.00    -0.039 A 
ATOM     17 CL   UNL     1       5.784   0.772   1.141  0.00  0.00    -0.084 Cl
ENDBRANCH   9  11
TORSDOF 1
