
     RDKit          3D

 27 28  0  0  0  0  0  0  0  0999 V2000
   -4.6162   -0.2226   -0.2627 C   0  0  0  0  0  0  0  0  0  0  0  0
   -3.2828    0.1701    0.2922 C   0  0  0  0  0  0  0  0  0  0  0  0
   -2.1946   -0.3339   -0.2960 N   0  0  0  0  0  0  0  0  0  0  0  0
   -1.0013   -0.0089    0.2185 C   0  0  0  0  0  0  0  0  0  0  0  0
   -0.8909    0.7873    1.2756 N   0  0  0  0  0  0  0  0  0  0  0  0
   -2.0371    1.2207    1.7776 C   0  0  0  0  0  0  0  0  0  0  0  0
   -3.2640    0.9582    1.3553 N   0  0  0  0  0  0  0  0  0  0  0  0
   -1.9178    2.2349    3.1479 Cl  0  0  0  0  0  0  0  0  0  0  0  0
    0.1700   -0.5119   -0.3947 N   0  0  0  0  0  0  0  0  0  0  0  0
    1.5016   -0.2030   -0.0433 C   0  0  0  0  0  0  0  0  0  0  0  0
    1.9058   -0.1818    1.3037 C   0  0  0  0  0  0  0  0  0  0  0  0
    3.2223    0.1175    1.6737 C   0  0  0  0  0  0  0  0  0  0  0  0
    4.1652    0.4036    0.6945 C   0  0  0  0  0  0  0  0  0  0  0  0
    3.8010    0.3924   -0.6469 C   0  0  0  0  0  0  0  0  0  0  0  0
    2.4819    0.0911   -1.0089 C   0  0  0  0  0  0  0  0  0  0  0  0
    5.7843    0.7720    1.1412 Cl  0  0  0  0  0  0  0  0  0  0  0  0
   -0.0593   -1.1498   -1.6901 C   0  0  0  0  0  0  0  0  0  0  0  0
   -4.5470   -0.4040   -1.3397 H   0  0  0  0  0  0  0  0  0  0  0  0
   -4.9645   -1.1365    0.2273 H   0  0  0  0  0  0  0  0  0  0  0  0
   -5.3521    0.5700   -0.0960 H   0  0  0  0  0  0  0  0  0  0  0  0
    1.1943   -0.4193    2.0917 H   0  0  0  0  0  0  0  0  0  0  0  0
    3.4961    0.1223    2.7250 H   0  0  0  0  0  0  0  0  0  0  0  0
    4.5314    0.6228   -1.4177 H   0  0  0  0  0  0  0  0  0  0  0  0
    2.2301    0.1200   -2.0658 H   0  0  0  0  0  0  0  0  0  0  0  0
   -0.2590   -0.4006   -2.4650 H   0  0  0  0  0  0  0  0  0  0  0  0
   -0.8973   -1.8570   -1.6589 H   0  0  0  0  0  0  0  0  0  0  0  0
    0.8002   -1.7536   -2.0068 H   0  0  0  0  0  0  0  0  0  0  0  0
  1  2  1  0
  2  3  2  0
  3  4  1  0
  4  5  2  0
  5  6  1  0
  6  7  2  0
  6  8  1  0
  4  9  1  0
  9 10  1  0
 10 11  2  0
 11 12  1  0
 12 13  2  0
 13 14  1  0
 14 15  2  0
 13 16  1  0
  9 17  1  0
  7  2  1  0
 15 10  1  0
  1 18  1  0
  1 19  1  0
  1 20  1  0
 11 21  1  0
 12 22  1  0
 14 23  1  0
 15 24  1  0
 17 25  1  0
 17 26  1  0
 17 27  1  0
M  END
