REMARK  Name = 
REMARK  7 active torsions:
REMARK  status: ('A' for Active; 'I' for Inactive)
REMARK    1  A    between atoms: C_1  and  O_2
REMARK    2  A    between atoms: O_2  and  C_3
REMARK    3  A    between atoms: C_5  and  C_6
REMARK    4  A    between atoms: C_7  and  N_8
REMARK    5  A    between atoms: C_14  and  N_15
REMARK    6  A    between atoms: C_18  and  O_19
REMARK    7  A    between atoms: O_19  and  C_20
REMARK                            x       y       z     vdW  Elec       q    Type
REMARK                         _______ _______ _______ _____ _____    ______ ____
ROOT
ATOM      1  N   UNL     1      -0.613  -1.134   1.050  0.00  0.00    -0.299 N 
ATOM      2  C   UNL     1      -1.876  -1.018   0.407  0.00  0.00    +0.130 A 
ATOM      3  N   UNL     1      -2.036  -0.203  -0.647  0.00  0.00    -0.199 NA
ATOM      4  C   UNL     1      -3.251  -0.132  -1.188  0.00  0.00    +0.216 A 
ATOM      5  N   UNL     1      -3.416   0.719  -2.263  0.00  0.00    -0.327 N 
ATOM      6  N   UNL     1      -4.327  -0.787  -0.749  0.00  0.00    -0.200 NA
ATOM      7  C   UNL     1      -4.145  -1.597   0.296  0.00  0.00    +0.123 A 
ATOM      8  C   UNL     1      -2.930  -1.745   0.921  0.00  0.00    +0.018 A 
ATOM      9  H   UNL     1      -0.524  -1.792   1.778  0.00  0.00    +0.000 HD
ATOM     10  H   UNL     1      -2.646   1.220  -2.616  0.00  0.00    +0.000 HD
ATOM     11  H   UNL     1      -4.304   0.825  -2.676  0.00  0.00    +0.000 HD
ENDROOT
BRANCH   1  16
ATOM     12  C   UNL     1       2.796   1.113  -0.100  0.00  0.00    +0.162 A 
ATOM     13  C   UNL     1       1.713   1.750   0.515  0.00  0.00    -0.012 A 
ATOM     14  C   UNL     1       0.581   1.026   0.931  0.00  0.00    -0.026 A 
ATOM     15  C   UNL     1      -0.548   1.774   1.588  0.00  0.00    -0.038 C 
ATOM     16  C   UNL     1       0.528  -0.362   0.708  0.00  0.00    +0.039 A 
ATOM     17  C   UNL     1       1.616  -0.997   0.083  0.00  0.00    +0.005 A 
ATOM     18  C   UNL     1       2.746  -0.275  -0.319  0.00  0.00    +0.163 A 
BRANCH  12  20
ATOM     19  C   UNL     1       4.013   3.156  -0.336  0.00  0.00    +0.079 C 
ATOM     20  O   UNL     1       3.937   1.751  -0.521  0.00  0.00    -0.491 OA
ENDBRANCH  12  20
BRANCH  18  21
ATOM     21  O   UNL     1       3.846  -0.829  -0.928  0.00  0.00    -0.491 OA
ATOM     22  C   UNL     1       3.768  -2.193  -1.314  0.00  0.00    +0.079 C 
ENDBRANCH  18  21
ENDBRANCH   1  16
BRANCH   7  23
ATOM     23  N   UNL     1      -5.272  -2.270   0.769  0.00  0.00    -0.343 N 
ATOM     24  H   UNL     1      -6.139  -2.158   0.315  0.00  0.00    +0.000 HD
ATOM     25  H   UNL     1      -5.201  -2.857   1.556  0.00  0.00    +0.000 HD
ENDBRANCH   7  23
TORSDOF 4
