
     RDKit          3D

 37 38  0  0  0  0  0  0  0  0999 V2000
    4.0134    3.1562   -0.3360 C   0  0  0  0  0  0  0  0  0  0  0  0
    3.9365    1.7506   -0.5215 O   0  0  0  0  0  0  0  0  0  0  0  0
    2.7960    1.1129   -0.0995 C   0  0  0  0  0  0  0  0  0  0  0  0
    1.7131    1.7503    0.5146 C   0  0  0  0  0  0  0  0  0  0  0  0
    0.5807    1.0260    0.9307 C   0  0  0  0  0  0  0  0  0  0  0  0
   -0.5484    1.7737    1.5876 C   0  0  0  0  0  0  0  0  0  0  0  0
    0.5282   -0.3620    0.7080 C   0  0  0  0  0  0  0  0  0  0  0  0
   -0.6125   -1.1342    1.0500 N   0  0  0  0  0  0  0  0  0  0  0  0
   -1.8758   -1.0175    0.4071 C   0  0  0  0  0  0  0  0  0  0  0  0
   -2.0362   -0.2031   -0.6470 N   0  0  0  0  0  0  0  0  0  0  0  0
   -3.2512   -0.1318   -1.1882 C   0  0  0  0  0  0  0  0  0  0  0  0
   -3.4161    0.7191   -2.2628 N   0  0  0  0  0  0  0  0  0  0  0  0
   -4.3265   -0.7866   -0.7488 N   0  0  0  0  0  0  0  0  0  0  0  0
   -4.1454   -1.5965    0.2957 C   0  0  0  0  0  0  0  0  0  0  0  0
   -5.2725   -2.2697    0.7687 N   0  0  0  0  0  0  0  0  0  0  0  0
   -2.9303   -1.7449    0.9206 C   0  0  0  0  0  0  0  0  0  0  0  0
    1.6163   -0.9971    0.0833 C   0  0  0  0  0  0  0  0  0  0  0  0
    2.7459   -0.2747   -0.3194 C   0  0  0  0  0  0  0  0  0  0  0  0
    3.8458   -0.8293   -0.9279 O   0  0  0  0  0  0  0  0  0  0  0  0
    3.7685   -2.1934   -1.3138 C   0  0  0  0  0  0  0  0  0  0  0  0
    4.9761    3.4936   -0.7321 H   0  0  0  0  0  0  0  0  0  0  0  0
    3.9827    3.4168    0.7271 H   0  0  0  0  0  0  0  0  0  0  0  0
    3.2258    3.6727   -0.8944 H   0  0  0  0  0  0  0  0  0  0  0  0
    1.7238    2.8216    0.6879 H   0  0  0  0  0  0  0  0  0  0  0  0
   -1.0257    1.1721    2.3674 H   0  0  0  0  0  0  0  0  0  0  0  0
   -1.2948    2.0654    0.8431 H   0  0  0  0  0  0  0  0  0  0  0  0
   -0.1813    2.6820    2.0784 H   0  0  0  0  0  0  0  0  0  0  0  0
   -0.3785   -2.1202    1.1084 H   0  0  0  0  0  0  0  0  0  0  0  0
   -2.6880    1.4205   -2.2446 H   0  0  0  0  0  0  0  0  0  0  0  0
   -4.3722    1.0422   -2.2976 H   0  0  0  0  0  0  0  0  0  0  0  0
   -5.1210   -3.2697    0.8327 H   0  0  0  0  0  0  0  0  0  0  0  0
   -6.0429   -2.0471    0.1418 H   0  0  0  0  0  0  0  0  0  0  0  0
   -2.8174   -2.3769    1.7902 H   0  0  0  0  0  0  0  0  0  0  0  0
    1.5556   -2.0647   -0.0933 H   0  0  0  0  0  0  0  0  0  0  0  0
    2.9337   -2.3660   -2.0011 H   0  0  0  0  0  0  0  0  0  0  0  0
    4.6922   -2.4438   -1.8444 H   0  0  0  0  0  0  0  0  0  0  0  0
    3.7024   -2.8463   -0.4375 H   0  0  0  0  0  0  0  0  0  0  0  0
  1  2  1  0
  2  3  1  0
  3  4  2  0
  4  5  1  0
  5  6  1  0
  5  7  2  0
  7  8  1  0
  8  9  1  0
  9 10  2  0
 10 11  1  0
 11 12  1  0
 11 13  2  0
 13 14  1  0
 14 15  1  0
 14 16  2  0
  7 17  1  0
 17 18  2  0
 18 19  1  0
 19 20  1  0
 18  3  1  0
 16  9  1  0
  1 21  1  0
  1 22  1  0
  1 23  1  0
  4 24  1  0
  6 25  1  0
  6 26  1  0
  6 27  1  0
  8 28  1  0
 12 29  1  0
 12 30  1  0
 15 31  1  0
 15 32  1  0
 16 33  1  0
 17 34  1  0
 20 35  1  0
 20 36  1  0
 20 37  1  0
M  END
