
     RDKit          3D

 21 21  0  0  0  0  0  0  0  0999 V2000
   -2.9387    0.6463   -1.4722 C   0  0  0  0  0  0  0  0  0  0  0  0
   -1.6910   -0.0709   -1.0505 C   0  0  0  0  0  0  0  0  0  0  0  0
   -1.2856   -1.1077   -1.5593 O   0  0  0  0  0  0  0  0  0  0  0  0
   -1.1064    0.6272   -0.0006 O   0  0  0  0  0  0  0  0  0  0  0  0
    0.0915    0.0497    0.4265 C   0  0  0  0  0  0  0  0  0  0  0  0
    0.0132   -0.7658    1.5624 C   0  0  0  0  0  0  0  0  0  0  0  0
    1.1650   -1.3659    2.0678 C   0  0  0  0  0  0  0  0  0  0  0  0
    2.3929   -1.1444    1.4478 C   0  0  0  0  0  0  0  0  0  0  0  0
    2.4715   -0.3145    0.3255 C   0  0  0  0  0  0  0  0  0  0  0  0
    1.3218    0.3029   -0.1953 C   0  0  0  0  0  0  0  0  0  0  0  0
    1.5180    1.1870   -1.3714 C   0  0  0  0  0  0  0  0  0  0  0  0
    2.5679    1.3265   -1.9754 O   0  0  0  0  0  0  0  0  0  0  0  0
    0.4334    1.8915   -1.7362 O   0  0  0  0  0  0  0  0  0  0  0  0
   -2.6940    1.6642   -1.7858 H   0  0  0  0  0  0  0  0  0  0  0  0
   -3.3887    0.1214   -2.3197 H   0  0  0  0  0  0  0  0  0  0  0  0
   -3.6554    0.6584   -0.6474 H   0  0  0  0  0  0  0  0  0  0  0  0
   -0.9442   -0.9404    2.0458 H   0  0  0  0  0  0  0  0  0  0  0  0
    1.1049   -2.0089    2.9425 H   0  0  0  0  0  0  0  0  0  0  0  0
    3.2926   -1.6152    1.8374 H   0  0  0  0  0  0  0  0  0  0  0  0
    3.4413   -0.1484   -0.1416 H   0  0  0  0  0  0  0  0  0  0  0  0
    0.7544    2.4152   -2.5006 H   0  0  0  0  0  0  0  0  0  0  0  0
  1  2  1  0
  2  3  2  0
  2  4  1  0
  4  5  1  0
  5  6  2  0
  6  7  1  0
  7  8  2  0
  8  9  1  0
  9 10  2  0
 10 11  1  0
 11 12  2  0
 11 13  1  0
 10  5  1  0
  1 14  1  0
  1 15  1  0
  1 16  1  0
  6 17  1  0
  7 18  1  0
  8 19  1  0
  9 20  1  0
 13 21  1  0
M  END
$$$$
