
     RDKit          3D

 24 25  0  0  0  0  0  0  0  0999 V2000
   -3.2568    0.0854   -0.9497 C   0  0  0  0  0  0  0  0  0  0  0  0
   -2.1470    0.4532   -0.1076 N   0  0  0  0  0  0  0  0  0  0  0  0
   -2.2032    1.2585    0.9991 C   0  0  0  0  0  0  0  0  0  0  0  0
   -1.0166    1.4047    1.5548 N   0  0  0  0  0  0  0  0  0  0  0  0
   -0.1823    0.6658    0.7715 C   0  0  0  0  0  0  0  0  0  0  0  0
   -0.8454    0.0691   -0.2574 C   0  0  0  0  0  0  0  0  0  0  0  0
   -0.2064   -0.7574   -1.2208 C   0  0  0  0  0  0  0  0  0  0  0  0
   -0.8135   -1.2907   -2.1447 O   0  0  0  0  0  0  0  0  0  0  0  0
    1.1671   -0.8881   -0.9958 N   0  0  0  0  0  0  0  0  0  0  0  0
    1.8892   -0.2870    0.0567 C   0  0  0  0  0  0  0  0  0  0  0  0
    3.1059   -0.4627    0.1723 O   0  0  0  0  0  0  0  0  0  0  0  0
    1.1704    0.5070    0.9510 N   0  0  0  0  0  0  0  0  0  0  0  0
    1.8384    1.1610    2.0613 C   0  0  0  0  0  0  0  0  0  0  0  0
    1.9347   -1.7083   -1.9123 C   0  0  0  0  0  0  0  0  0  0  0  0
   -3.0561    0.4387   -1.9642 H   0  0  0  0  0  0  0  0  0  0  0  0
   -4.1710    0.5505   -0.5719 H   0  0  0  0  0  0  0  0  0  0  0  0
   -3.3624   -1.0022   -0.9312 H   0  0  0  0  0  0  0  0  0  0  0  0
   -3.1223    1.7081    1.3538 H   0  0  0  0  0  0  0  0  0  0  0  0
    2.9098    0.9448    2.0774 H   0  0  0  0  0  0  0  0  0  0  0  0
    1.3974    0.8109    3.0000 H   0  0  0  0  0  0  0  0  0  0  0  0
    1.7019    2.2435    1.9729 H   0  0  0  0  0  0  0  0  0  0  0  0
    2.4147   -2.5160   -1.3500 H   0  0  0  0  0  0  0  0  0  0  0  0
    2.7170   -1.0937   -2.3698 H   0  0  0  0  0  0  0  0  0  0  0  0
    1.3194   -2.1444   -2.7031 H   0  0  0  0  0  0  0  0  0  0  0  0
  1  2  1  0
  2  3  1  0
  3  4  2  0
  4  5  1  0
  5  6  2  0
  6  7  1  0
  7  8  2  0
  7  9  1  0
  9 10  1  0
 10 11  2  0
 10 12  1  0
 12 13  1  0
  9 14  1  0
  6  2  1  0
 12  5  1  0
  1 15  1  0
  1 16  1  0
  1 17  1  0
  3 18  1  0
 13 19  1  0
 13 20  1  0
 13 21  1  0
 14 22  1  0
 14 23  1  0
 14 24  1  0
M  END
$$$$
