
     RDKit          3D

 33 33  0  0  0  0  0  0  0  0999 V2000
   -2.7731    2.0072    0.5588 C   0  0  0  0  0  0  0  0  0  0  0  0
   -2.0204    1.7288    1.8605 C   0  0  0  0  0  0  0  0  0  0  0  0
   -2.5537    0.4593    2.5253 C   0  0  0  0  0  0  0  0  0  0  0  0
   -0.4884    1.7122    1.6765 C   0  0  0  0  0  0  0  0  0  0  0  0
    0.0657    0.6391    0.7700 C   0  0  0  0  0  0  0  0  0  0  0  0
    0.4351   -0.6092    1.2845 C   0  0  0  0  0  0  0  0  0  0  0  0
    0.9454   -1.6036    0.4458 C   0  0  0  0  0  0  0  0  0  0  0  0
    1.1022   -1.3704   -0.9272 C   0  0  0  0  0  0  0  0  0  0  0  0
    0.7345   -0.1182   -1.4403 C   0  0  0  0  0  0  0  0  0  0  0  0
    0.2243    0.8750   -0.6005 C   0  0  0  0  0  0  0  0  0  0  0  0
    1.6566   -2.4617   -1.8242 C   0  0  0  0  0  0  0  0  0  0  0  0
    2.9832   -2.0531   -2.4685 C   0  0  0  0  0  0  0  0  0  0  0  0
    0.6588   -2.8753   -2.8900 C   0  0  0  0  0  0  0  0  0  0  0  0
    0.5594   -2.4247   -4.0206 O   0  0  0  0  0  0  0  0  0  0  0  0
   -0.1877   -3.8388   -2.4684 O   0  0  0  0  0  0  0  0  0  0  0  0
   -3.8396    2.1590    0.7586 H   0  0  0  0  0  0  0  0  0  0  0  0
   -2.6865    1.1757   -0.1478 H   0  0  0  0  0  0  0  0  0  0  0  0
   -2.3943    2.9131    0.0744 H   0  0  0  0  0  0  0  0  0  0  0  0
   -2.2403    2.5626    2.5412 H   0  0  0  0  0  0  0  0  0  0  0  0
   -3.6149    0.5737    2.7726 H   0  0  0  0  0  0  0  0  0  0  0  0
   -2.4613   -0.4132    1.8708 H   0  0  0  0  0  0  0  0  0  0  0  0
   -2.0170    0.2509    3.4567 H   0  0  0  0  0  0  0  0  0  0  0  0
   -0.0112    1.6184    2.6615 H   0  0  0  0  0  0  0  0  0  0  0  0
   -0.1632    2.6912    1.2988 H   0  0  0  0  0  0  0  0  0  0  0  0
    0.3254   -0.8185    2.3463 H   0  0  0  0  0  0  0  0  0  0  0  0
    1.2175   -2.5644    0.8774 H   0  0  0  0  0  0  0  0  0  0  0  0
    0.8376    0.0967   -2.5027 H   0  0  0  0  0  0  0  0  0  0  0  0
   -0.0517    1.8367   -1.0275 H   0  0  0  0  0  0  0  0  0  0  0  0
    1.8683   -3.3577   -1.2248 H   0  0  0  0  0  0  0  0  0  0  0  0
    3.3858   -2.8730   -3.0738 H   0  0  0  0  0  0  0  0  0  0  0  0
    3.7269   -1.7974   -1.7057 H   0  0  0  0  0  0  0  0  0  0  0  0
    2.8714   -1.1870   -3.1302 H   0  0  0  0  0  0  0  0  0  0  0  0
   -0.7920   -3.9709   -3.2284 H   0  0  0  0  0  0  0  0  0  0  0  0
  1  2  1  0
  2  3  1  0
  2  4  1  0
  4  5  1  0
  5  6  2  0
  6  7  1  0
  7  8  2  0
  8  9  1  0
  9 10  2  0
  8 11  1  0
 11 12  1  0
 11 13  1  0
 13 14  2  0
 13 15  1  0
 10  5  1  0
  1 16  1  0
  1 17  1  0
  1 18  1  0
  2 19  1  0
  3 20  1  0
  3 21  1  0
  3 22  1  0
  4 23  1  0
  4 24  1  0
  6 25  1  0
  7 26  1  0
  9 27  1  0
 10 28  1  0
 11 29  1  0
 12 30  1  0
 12 31  1  0
 12 32  1  0
 15 33  1  0
M  END
$$$$
