MODEL 1
REMARK VINA RESULT:    -9.423      0.000      0.000
REMARK INTER + INTRA:         -16.099
REMARK INTER:                 -14.932
REMARK INTRA:                  -1.167
REMARK UNBOUND:                -1.167
REMARK  Name = 126941
REMARK  12 active torsions:
REMARK  status: ('A' for Active; 'I' for Inactive)
REMARK    1  A    between atoms: O_1  and  C_23
REMARK    2  A    between atoms: OE1_4  and  CD_28
REMARK    3  A    between atoms: N_6  and  C_16
REMARK    4  A    between atoms: N_6  and  C_18
REMARK    5  A    between atoms: N_6  and  C_27
REMARK    6  A    between atoms: N_7  and  CA_14
REMARK    7  A    between atoms: CA_14  and  CB_15
REMARK    8  A    between atoms: CA_14  and  C_23
REMARK    9  A    between atoms: CB_15  and  CG_17
REMARK   10  A    between atoms: CG_17  and  CD_28
REMARK   11  A    between atoms: C_18  and  C_26
REMARK   12  A    between atoms: C_19  and  C_20
REMARK                            x       y       z     vdW  Elec       q    Type
REMARK                         _______ _______ _______ _____ _____    ______ ____
ROOT
ATOM      1  C   UNL     1       4.236   4.430   2.779  0.00  0.00    +0.000 A 
ATOM      2  C   UNL     1       3.866   6.944   3.931  0.00  0.00    +0.000 A 
ATOM      3  C   UNL     1       3.302   5.314   2.238  0.00  0.00    +0.000 A 
ATOM      4  C   UNL     1       4.985   4.804   3.895  0.00  0.00    +0.000 A 
ATOM      5  C   UNL     1       3.116   6.572   2.814  0.00  0.00    +0.000 A 
ATOM      6  C   UNL     1       4.800   6.060   4.470  0.00  0.00    +0.000 A 
ENDROOT
BRANCH   2   9
ATOM      7  O   UNL     1       4.477   8.687   5.376  0.00  0.00    +0.000 OA
ATOM      8  N   UNL     1       2.566   9.000   4.098  0.00  0.00    +0.000 N 
ATOM      9  C   ACE A   0       3.668   8.283   4.544  0.00  0.00    +0.000 C 
ATOM     10  H   UNL     1       1.988   8.635   3.348  0.00  0.00    +0.000 HD
BRANCH   8  11
ATOM     11  CA  UNL     1       2.255  10.322   4.580  0.00  0.00    +0.000 C 
BRANCH  11  13
ATOM     12  OXT UNL     1      -0.068  10.547   3.884  0.00  0.00    +0.000 OA
ATOM     13  C   UNL     1       0.755  10.396   4.778  0.00  0.00    +0.000 C 
BRANCH  13  14
ATOM     14  O   UNL     1       0.407  10.236   6.081  0.00  0.00    +0.000 OA
ATOM     15  H   UNL     1      -0.553  10.064   6.184  0.00  0.00    +0.000 HD
ENDBRANCH  13  14
ENDBRANCH  11  13
BRANCH  11  16
ATOM     16  CB  UNL     1       2.816  11.428   3.678  0.00  0.00    +0.000 C 
BRANCH  16  17
ATOM     17  CG  UNL     1       3.389  10.967   2.332  0.00  0.00    +0.000 C 
BRANCH  17  19
ATOM     18  OE2 UNL     1       1.670   9.651   1.214  0.00  0.00    +0.000 OA
ATOM     19  CD  UNL     1       2.333  10.676   1.287  0.00  0.00    +0.000 C 
BRANCH  19  20
ATOM     20  OE1 UNL     1       2.228  11.688   0.388  0.00  0.00    +0.000 OA
ATOM     21  HE1 UNL     1       1.398  12.199   0.507  0.00  0.00    +0.000 HD
ENDBRANCH  19  20
ENDBRANCH  17  19
ENDBRANCH  16  17
ENDBRANCH  11  16
ENDBRANCH   8  11
ENDBRANCH   2   9
BRANCH   1  22
ATOM     22  N   UNL     1       4.422   3.160   2.196  0.00  0.00    +0.000 N 
ATOM     23  C   UNL     1       3.281   2.325   1.876  0.00  0.00    +0.000 C 
BRANCH  22  24
ATOM     24  C   UNL     1       5.756   2.678   1.896  0.00  0.00    +0.000 C 
BRANCH  24  31
ATOM     25  N   UNL     1       5.874   0.242   1.888  0.00  0.00    +0.000 NA
ATOM     26  N   UNL     1       6.616   0.178   4.553  0.00  0.00    +0.000 NA
ATOM     27  N   UNL     1       6.713  -2.135   4.486  0.00  0.00    +0.000 NA
ATOM     28  N   UNL     1       6.213  -3.332   2.469  0.00  0.00    +0.000 NA
ATOM     29  N   UNL     1       5.613  -2.137   0.520  0.00  0.00    +0.000 N 
ATOM     30  N   UNL     1       6.810  -4.479   4.420  0.00  0.00    +0.000 N 
ATOM     31  C   UNL     1       6.014   1.372   2.597  0.00  0.00    +0.000 A 
ATOM     32  C   UNL     1       6.382   1.340   3.914  0.00  0.00    +0.000 A 
ATOM     33  C   UNL     1       6.110  -0.919   2.527  0.00  0.00    +0.000 A 
ATOM     34  C   UNL     1       6.484  -0.967   3.873  0.00  0.00    +0.000 A 
ATOM     35  C   UNL     1       5.992  -2.138   1.888  0.00  0.00    +0.000 A 
ATOM     36  C   UNL     1       6.566  -3.257   3.757  0.00  0.00    +0.000 A 
ATOM     37  H   UNL     1       5.523  -3.038   0.067  0.00  0.00    +0.000 HD
ATOM     38  H   UNL     1       5.052  -1.366   0.179  0.00  0.00    +0.000 HD
ATOM     39  H   UNL     1       6.713  -5.347   3.914  0.00  0.00    +0.000 HD
ATOM     40  H   UNL     1       7.079  -4.470   5.394  0.00  0.00    +0.000 HD
ENDBRANCH  24  31
ENDBRANCH  22  24
ENDBRANCH   1  22
TORSDOF 11
ENDMDL
MODEL 2
REMARK VINA RESULT:    -9.379      1.915      3.360
REMARK INTER + INTRA:         -16.029
REMARK INTER:                 -15.114
REMARK INTRA:                  -0.916
REMARK UNBOUND:                -1.167
REMARK  Name = 126941
REMARK  12 active torsions:
REMARK  status: ('A' for Active; 'I' for Inactive)
REMARK    1  A    between atoms: O_1  and  C_23
REMARK    2  A    between atoms: OE1_4  and  CD_28
REMARK    3  A    between atoms: N_6  and  C_16
REMARK    4  A    between atoms: N_6  and  C_18
REMARK    5  A    between atoms: N_6  and  C_27
REMARK    6  A    between atoms: N_7  and  CA_14
REMARK    7  A    between atoms: CA_14  and  CB_15
REMARK    8  A    between atoms: CA_14  and  C_23
REMARK    9  A    between atoms: CB_15  and  CG_17
REMARK   10  A    between atoms: CG_17  and  CD_28
REMARK   11  A    between atoms: C_18  and  C_26
REMARK   12  A    between atoms: C_19  and  C_20
REMARK                            x       y       z     vdW  Elec       q    Type
REMARK                         _______ _______ _______ _____ _____    ______ ____
ROOT
ATOM      1  C   UNL     1       4.129   2.475   0.614  0.00  0.00    +0.000 A 
ATOM      2  C   UNL     1       3.410   4.655   2.197  0.00  0.00    +0.000 A 
ATOM      3  C   UNL     1       4.297   3.773   0.130  0.00  0.00    +0.000 A 
ATOM      4  C   UNL     1       3.603   2.268   1.889  0.00  0.00    +0.000 A 
ATOM      5  C   UNL     1       3.936   4.864   0.922  0.00  0.00    +0.000 A 
ATOM      6  C   UNL     1       3.244   3.358   2.680  0.00  0.00    +0.000 A 
ENDROOT
BRANCH   2   9
ATOM      7  O   UNL     1       2.888   5.660   4.251  0.00  0.00    +0.000 OA
ATOM      8  N   UNL     1       2.873   7.027   2.376  0.00  0.00    +0.000 N 
ATOM      9  C   ACE A   0       3.026   5.818   3.041  0.00  0.00    +0.000 C 
ATOM     10  H   UNL     1       3.084   7.097   1.387  0.00  0.00    +0.000 HD
BRANCH   8  11
ATOM     11  CA  UNL     1       2.528   8.247   3.060  0.00  0.00    +0.000 C 
BRANCH  11  13
ATOM     12  OXT UNL     1       0.259   9.044   2.673  0.00  0.00    +0.000 OA
ATOM     13  C   UNL     1       1.410   8.909   2.279  0.00  0.00    +0.000 C 
BRANCH  13  14
ATOM     14  O   UNL     1       1.840   9.383   1.081  0.00  0.00    +0.000 OA
ATOM     15  H   UNL     1       1.824   8.690   0.387  0.00  0.00    +0.000 HD
ENDBRANCH  13  14
ENDBRANCH  11  13
BRANCH  11  16
ATOM     16  CB  UNL     1       3.739   9.157   3.297  0.00  0.00    +0.000 C 
BRANCH  16  17
ATOM     17  CG  UNL     1       4.813   8.606   4.244  0.00  0.00    +0.000 C 
BRANCH  17  19
ATOM     18  OE2 UNL     1       6.990   9.335   5.059  0.00  0.00    +0.000 OA
ATOM     19  CD  UNL     1       6.113   9.383   4.210  0.00  0.00    +0.000 C 
BRANCH  19  20
ATOM     20  OE1 UNL     1       6.182  10.193   3.122  0.00  0.00    +0.000 OA
ATOM     21  HE1 UNL     1       6.071   9.692   2.285  0.00  0.00    +0.000 HD
ENDBRANCH  19  20
ENDBRANCH  17  19
ENDBRANCH  16  17
ENDBRANCH  11  16
ENDBRANCH   8  11
ENDBRANCH   2   9
BRANCH   1  22
ATOM     22  N   UNL     1       4.493   1.372  -0.188  0.00  0.00    +0.000 N 
ATOM     23  C   UNL     1       3.523   0.757  -1.071  0.00  0.00    +0.000 C 
BRANCH  22  24
ATOM     24  C   UNL     1       5.845   0.851  -0.150  0.00  0.00    +0.000 C 
BRANCH  24  31
ATOM     25  N   UNL     1       6.619   0.172   2.061  0.00  0.00    +0.000 NA
ATOM     26  N   UNL     1       5.582  -2.374   1.742  0.00  0.00    +0.000 NA
ATOM     27  N   UNL     1       6.341  -2.963   3.849  0.00  0.00    +0.000 NA
ATOM     28  N   UNL     1       7.520  -1.387   5.219  0.00  0.00    +0.000 NA
ATOM     29  N   UNL     1       7.916   0.798   4.412  0.00  0.00    +0.000 N 
ATOM     30  N   UNL     1       7.109  -3.562   5.984  0.00  0.00    +0.000 N 
ATOM     31  C   UNL     1       5.980  -0.182   0.935  0.00  0.00    +0.000 A 
ATOM     32  C   UNL     1       5.467  -1.440   0.778  0.00  0.00    +0.000 A 
ATOM     33  C   UNL     1       6.732  -0.763   3.023  0.00  0.00    +0.000 A 
ATOM     34  C   UNL     1       6.215  -2.052   2.876  0.00  0.00    +0.000 A 
ATOM     35  C   UNL     1       7.373  -0.500   4.219  0.00  0.00    +0.000 A 
ATOM     36  C   UNL     1       6.985  -2.588   4.970  0.00  0.00    +0.000 A 
ATOM     37  H   UNL     1       8.390   0.973   5.288  0.00  0.00    +0.000 HD
ATOM     38  H   UNL     1       8.201   1.324   3.595  0.00  0.00    +0.000 HD
ATOM     39  H   UNL     1       7.586  -3.327   6.843  0.00  0.00    +0.000 HD
ATOM     40  H   UNL     1       6.721  -4.483   5.838  0.00  0.00    +0.000 HD
ENDBRANCH  24  31
ENDBRANCH  22  24
ENDBRANCH   1  22
TORSDOF 11
ENDMDL
MODEL 3
REMARK VINA RESULT:    -9.094      1.378      2.295
REMARK INTER + INTRA:         -15.577
REMARK INTER:                 -14.170
REMARK INTRA:                  -1.407
REMARK UNBOUND:                -1.167
REMARK  Name = 126941
REMARK  12 active torsions:
REMARK  status: ('A' for Active; 'I' for Inactive)
REMARK    1  A    between atoms: O_1  and  C_23
REMARK    2  A    between atoms: OE1_4  and  CD_28
REMARK    3  A    between atoms: N_6  and  C_16
REMARK    4  A    between atoms: N_6  and  C_18
REMARK    5  A    between atoms: N_6  and  C_27
REMARK    6  A    between atoms: N_7  and  CA_14
REMARK    7  A    between atoms: CA_14  and  CB_15
REMARK    8  A    between atoms: CA_14  and  C_23
REMARK    9  A    between atoms: CB_15  and  CG_17
REMARK   10  A    between atoms: CG_17  and  CD_28
REMARK   11  A    between atoms: C_18  and  C_26
REMARK   12  A    between atoms: C_19  and  C_20
REMARK                            x       y       z     vdW  Elec       q    Type
REMARK                         _______ _______ _______ _____ _____    ______ ____
ROOT
ATOM      1  C   UNL     1       3.710   4.203   3.288  0.00  0.00    +0.000 A 
ATOM      2  C   UNL     1       3.795   6.852   4.156  0.00  0.00    +0.000 A 
ATOM      3  C   UNL     1       2.608   5.036   3.091  0.00  0.00    +0.000 A 
ATOM      4  C   UNL     1       4.853   4.694   3.918  0.00  0.00    +0.000 A 
ATOM      5  C   UNL     1       2.651   6.362   3.526  0.00  0.00    +0.000 A 
ATOM      6  C   UNL     1       4.896   6.018   4.352  0.00  0.00    +0.000 A 
ENDROOT
BRANCH   2   9
ATOM      7  O   UNL     1       4.801   8.647   5.281  0.00  0.00    +0.000 OA
ATOM      8  N   UNL     1       2.772   9.064   4.235  0.00  0.00    +0.000 N 
ATOM      9  C   ACE A   0       3.840   8.264   4.619  0.00  0.00    +0.000 C 
ATOM     10  H   UNL     1       2.054   8.698   3.619  0.00  0.00    +0.000 HD
BRANCH   8  11
ATOM     11  CA  UNL     1       2.685  10.459   4.585  0.00  0.00    +0.000 C 
BRANCH  11  13
ATOM     12  OXT UNL     1       0.842  11.599   5.696  0.00  0.00    +0.000 OA
ATOM     13  C   UNL     1       1.233  10.765   4.890  0.00  0.00    +0.000 C 
BRANCH  13  14
ATOM     14  O   UNL     1       0.387  10.023   4.128  0.00  0.00    +0.000 OA
ATOM     15  H   UNL     1      -0.356   9.660   4.655  0.00  0.00    +0.000 HD
ENDBRANCH  13  14
ENDBRANCH  11  13
BRANCH  11  16
ATOM     16  CB  UNL     1       3.300  11.377   3.521  0.00  0.00    +0.000 C 
BRANCH  16  17
ATOM     17  CG  UNL     1       3.547  10.737   2.149  0.00  0.00    +0.000 C 
BRANCH  17  19
ATOM     18  OE2 UNL     1       1.478   9.725   1.355  0.00  0.00    +0.000 OA
ATOM     19  CD  UNL     1       2.302  10.626   1.295  0.00  0.00    +0.000 C 
BRANCH  19  20
ATOM     20  OE1 UNL     1       2.217  11.645   0.400  0.00  0.00    +0.000 OA
ATOM     21  HE1 UNL     1       2.782  11.489  -0.386  0.00  0.00    +0.000 HD
ENDBRANCH  19  20
ENDBRANCH  17  19
ENDBRANCH  16  17
ENDBRANCH  11  16
ENDBRANCH   8  11
ENDBRANCH   2   9
BRANCH   1  22
ATOM     22  N   UNL     1       3.666   2.863   2.849  0.00  0.00    +0.000 N 
ATOM     23  C   UNL     1       2.730   1.928   3.441  0.00  0.00    +0.000 C 
BRANCH  22  24
ATOM     24  C   UNL     1       4.545   2.408   1.790  0.00  0.00    +0.000 C 
BRANCH  24  31
ATOM     25  N   UNL     1       6.441   1.767   3.185  0.00  0.00    +0.000 NA
ATOM     26  N   UNL     1       6.269  -0.871   2.364  0.00  0.00    +0.000 NA
ATOM     27  N   UNL     1       8.073  -1.422   3.707  0.00  0.00    +0.000 NA
ATOM     28  N   UNL     1       9.172   0.242   5.039  0.00  0.00    +0.000 NA
ATOM     29  N   UNL     1       8.405   2.477   4.984  0.00  0.00    +0.000 N 
ATOM     30  N   UNL     1       9.902  -1.982   5.067  0.00  0.00    +0.000 N 
ATOM     31  C   UNL     1       5.503   1.371   2.310  0.00  0.00    +0.000 A 
ATOM     32  C   UNL     1       5.418   0.067   1.906  0.00  0.00    +0.000 A 
ATOM     33  C   UNL     1       7.290   0.828   3.642  0.00  0.00    +0.000 A 
ATOM     34  C   UNL     1       7.216  -0.507   3.237  0.00  0.00    +0.000 A 
ATOM     35  C   UNL     1       8.292   1.132   4.544  0.00  0.00    +0.000 A 
ATOM     36  C   UNL     1       9.006  -1.004   4.582  0.00  0.00    +0.000 A 
ATOM     37  H   UNL     1       9.149   2.686   5.637  0.00  0.00    +0.000 HD
ATOM     38  H   UNL     1       8.084   3.212   4.365  0.00  0.00    +0.000 HD
ATOM     39  H   UNL     1      10.620  -1.716   5.725  0.00  0.00    +0.000 HD
ATOM     40  H   UNL     1       9.815  -2.937   4.748  0.00  0.00    +0.000 HD
ENDBRANCH  24  31
ENDBRANCH  22  24
ENDBRANCH   1  22
TORSDOF 11
ENDMDL
MODEL 4
REMARK VINA RESULT:    -9.067      1.854      2.403
REMARK INTER + INTRA:         -15.535
REMARK INTER:                 -14.224
REMARK INTRA:                  -1.311
REMARK UNBOUND:                -1.167
REMARK  Name = 126941
REMARK  12 active torsions:
REMARK  status: ('A' for Active; 'I' for Inactive)
REMARK    1  A    between atoms: O_1  and  C_23
REMARK    2  A    between atoms: OE1_4  and  CD_28
REMARK    3  A    between atoms: N_6  and  C_16
REMARK    4  A    between atoms: N_6  and  C_18
REMARK    5  A    between atoms: N_6  and  C_27
REMARK    6  A    between atoms: N_7  and  CA_14
REMARK    7  A    between atoms: CA_14  and  CB_15
REMARK    8  A    between atoms: CA_14  and  C_23
REMARK    9  A    between atoms: CB_15  and  CG_17
REMARK   10  A    between atoms: CG_17  and  CD_28
REMARK   11  A    between atoms: C_18  and  C_26
REMARK   12  A    between atoms: C_19  and  C_20
REMARK                            x       y       z     vdW  Elec       q    Type
REMARK                         _______ _______ _______ _____ _____    ______ ____
ROOT
ATOM      1  C   UNL     1       4.517   4.271   3.475  0.00  0.00    +0.000 A 
ATOM      2  C   UNL     1       3.781   6.951   3.714  0.00  0.00    +0.000 A 
ATOM      3  C   UNL     1       5.281   5.137   4.258  0.00  0.00    +0.000 A 
ATOM      4  C   UNL     1       3.385   4.746   2.812  0.00  0.00    +0.000 A 
ATOM      5  C   UNL     1       4.913   6.478   4.378  0.00  0.00    +0.000 A 
ATOM      6  C   UNL     1       3.018   6.085   2.932  0.00  0.00    +0.000 A 
ENDROOT
BRANCH   2   9
ATOM      7  O   UNL     1       3.877   9.056   4.742  0.00  0.00    +0.000 OA
ATOM      8  N   UNL     1       2.495   8.852   2.890  0.00  0.00    +0.000 N 
ATOM      9  C   ACE A   0       3.389   8.379   3.841  0.00  0.00    +0.000 C 
ATOM     10  H   UNL     1       2.197   8.254   2.126  0.00  0.00    +0.000 HD
BRANCH   8  11
ATOM     11  CA  UNL     1       2.040  10.218   2.867  0.00  0.00    +0.000 C 
BRANCH  11  13
ATOM     12  OXT UNL     1      -0.076   9.285   2.100  0.00  0.00    +0.000 OA
ATOM     13  C   UNL     1       0.544  10.199   2.630  0.00  0.00    +0.000 C 
BRANCH  13  14
ATOM     14  O   UNL     1      -0.061  11.316   3.113  0.00  0.00    +0.000 OA
ATOM     15  H   UNL     1       0.015  12.071   2.490  0.00  0.00    +0.000 HD
ENDBRANCH  13  14
ENDBRANCH  11  13
BRANCH  11  16
ATOM     16  CB  UNL     1       2.814  11.084   1.865  0.00  0.00    +0.000 C 
BRANCH  16  17
ATOM     17  CG  UNL     1       3.478  12.341   2.441  0.00  0.00    +0.000 C 
BRANCH  17  19
ATOM     18  OE2 UNL     1       2.258  13.004   4.444  0.00  0.00    +0.000 OA
ATOM     19  CD  UNL     1       3.256  12.521   3.928  0.00  0.00    +0.000 C 
BRANCH  19  20
ATOM     20  OE1 UNL     1       4.334  12.112   4.647  0.00  0.00    +0.000 OA
ATOM     21  HE1 UNL     1       4.180  11.244   5.076  0.00  0.00    +0.000 HD
ENDBRANCH  19  20
ENDBRANCH  17  19
ENDBRANCH  16  17
ENDBRANCH  11  16
ENDBRANCH   8  11
ENDBRANCH   2   9
BRANCH   1  22
ATOM     22  N   UNL     1       4.890   2.916   3.354  0.00  0.00    +0.000 N 
ATOM     23  C   UNL     1       4.156   1.888   4.063  0.00  0.00    +0.000 C 
BRANCH  22  24
ATOM     24  C   UNL     1       6.002   2.534   2.506  0.00  0.00    +0.000 C 
BRANCH  24  31
ATOM     25  N   UNL     1       6.917   0.302   2.868  0.00  0.00    +0.000 NA
ATOM     26  N   UNL     1       8.562   1.207   4.902  0.00  0.00    +0.000 NA
ATOM     27  N   UNL     1       9.395  -0.932   5.201  0.00  0.00    +0.000 NA
ATOM     28  N   UNL     1       8.620  -2.756   3.850  0.00  0.00    +0.000 NA
ATOM     29  N   UNL     1       6.984  -2.369   2.190  0.00  0.00    +0.000 N 
ATOM     30  N   UNL     1      10.240  -3.100   5.506  0.00  0.00    +0.000 N 
ATOM     31  C   UNL     1       6.920   1.593   3.236  0.00  0.00    +0.000 A 
ATOM     32  C   UNL     1       7.734   2.040   4.241  0.00  0.00    +0.000 A 
ATOM     33  C   UNL     1       7.745  -0.528   3.530  0.00  0.00    +0.000 A 
ATOM     34  C   UNL     1       8.580  -0.086   4.559  0.00  0.00    +0.000 A 
ATOM     35  C   UNL     1       7.816  -1.875   3.228  0.00  0.00    +0.000 A 
ATOM     36  C   UNL     1       9.375  -2.222   4.817  0.00  0.00    +0.000 A 
ATOM     37  H   UNL     1       7.041  -3.359   1.986  0.00  0.00    +0.000 HD
ATOM     38  H   UNL     1       6.114  -1.886   2.002  0.00  0.00    +0.000 HD
ATOM     39  H   UNL     1      10.260  -4.078   5.253  0.00  0.00    +0.000 HD
ATOM     40  H   UNL     1      10.828  -2.741   6.244  0.00  0.00    +0.000 HD
ENDBRANCH  24  31
ENDBRANCH  22  24
ENDBRANCH   1  22
TORSDOF 11
ENDMDL
MODEL 5
REMARK VINA RESULT:    -8.864      1.957      3.372
REMARK INTER + INTRA:         -15.213
REMARK INTER:                 -14.194
REMARK INTRA:                  -1.019
REMARK UNBOUND:                -1.167
REMARK  Name = 126941
REMARK  12 active torsions:
REMARK  status: ('A' for Active; 'I' for Inactive)
REMARK    1  A    between atoms: O_1  and  C_23
REMARK    2  A    between atoms: OE1_4  and  CD_28
REMARK    3  A    between atoms: N_6  and  C_16
REMARK    4  A    between atoms: N_6  and  C_18
REMARK    5  A    between atoms: N_6  and  C_27
REMARK    6  A    between atoms: N_7  and  CA_14
REMARK    7  A    between atoms: CA_14  and  CB_15
REMARK    8  A    between atoms: CA_14  and  C_23
REMARK    9  A    between atoms: CB_15  and  CG_17
REMARK   10  A    between atoms: CG_17  and  CD_28
REMARK   11  A    between atoms: C_18  and  C_26
REMARK   12  A    between atoms: C_19  and  C_20
REMARK                            x       y       z     vdW  Elec       q    Type
REMARK                         _______ _______ _______ _____ _____    ______ ____
ROOT
ATOM      1  C   UNL     1       4.486   2.680   1.610  0.00  0.00    +0.000 A 
ATOM      2  C   UNL     1       3.635   5.092   2.725  0.00  0.00    +0.000 A 
ATOM      3  C   UNL     1       4.440   2.829   2.997  0.00  0.00    +0.000 A 
ATOM      4  C   UNL     1       4.105   3.736   0.782  0.00  0.00    +0.000 A 
ATOM      5  C   UNL     1       4.014   4.036   3.554  0.00  0.00    +0.000 A 
ATOM      6  C   UNL     1       3.680   4.941   1.339  0.00  0.00    +0.000 A 
ENDROOT
BRANCH   2   9
ATOM      7  O   UNL     1       3.070   6.466   4.538  0.00  0.00    +0.000 OA
ATOM      8  N   UNL     1       2.935   7.408   2.422  0.00  0.00    +0.000 N 
ATOM      9  C   ACE A   0       3.181   6.376   3.319  0.00  0.00    +0.000 C 
ATOM     10  H   UNL     1       3.128   7.284   1.434  0.00  0.00    +0.000 HD
BRANCH   8  11
ATOM     11  CA  UNL     1       2.514   8.718   2.846  0.00  0.00    +0.000 C 
BRANCH  11  13
ATOM     12  OXT UNL     1       0.120   9.062   2.556  0.00  0.00    +0.000 OA
ATOM     13  C   UNL     1       1.251   9.063   2.085  0.00  0.00    +0.000 C 
BRANCH  13  14
ATOM     14  O   UNL     1       1.514   9.419   0.800  0.00  0.00    +0.000 OA
ATOM     15  H   UNL     1       0.693   9.622   0.303  0.00  0.00    +0.000 HD
ENDBRANCH  13  14
ENDBRANCH  11  13
BRANCH  11  16
ATOM     16  CB  UNL     1       3.623   9.770   2.712  0.00  0.00    +0.000 C 
BRANCH  16  17
ATOM     17  CG  UNL     1       4.470  10.011   3.968  0.00  0.00    +0.000 C 
BRANCH  17  19
ATOM     18  OE2 UNL     1       5.976   8.128   4.317  0.00  0.00    +0.000 OA
ATOM     19  CD  UNL     1       5.797   9.283   3.958  0.00  0.00    +0.000 C 
BRANCH  19  20
ATOM     20  OE1 UNL     1       6.805  10.088   3.534  0.00  0.00    +0.000 OA
ATOM     21  HE1 UNL     1       7.475  10.236   4.235  0.00  0.00    +0.000 HD
ENDBRANCH  19  20
ENDBRANCH  17  19
ENDBRANCH  16  17
ENDBRANCH  11  16
ENDBRANCH   8  11
ENDBRANCH   2   9
BRANCH   1  22
ATOM     22  N   UNL     1       4.917   1.461   1.047  0.00  0.00    +0.000 N 
ATOM     23  C   UNL     1       5.890   1.453  -0.027  0.00  0.00    +0.000 C 
BRANCH  22  24
ATOM     24  C   UNL     1       4.403   0.200   1.544  0.00  0.00    +0.000 C 
BRANCH  24  31
ATOM     25  N   UNL     1       6.362   0.053   2.991  0.00  0.00    +0.000 NA
ATOM     26  N   UNL     1       6.599  -2.668   2.545  0.00  0.00    +0.000 NA
ATOM     27  N   UNL     1       8.454  -2.748   3.929  0.00  0.00    +0.000 NA
ATOM     28  N   UNL     1       9.276  -0.768   5.005  0.00  0.00    +0.000 NA
ATOM     29  N   UNL     1       8.179   1.295   4.650  0.00  0.00    +0.000 N 
ATOM     30  N   UNL     1      10.334  -2.830   5.331  0.00  0.00    +0.000 N 
ATOM     31  C   UNL     1       5.502  -0.597   2.191  0.00  0.00    +0.000 A 
ATOM     32  C   UNL     1       5.620  -1.943   1.972  0.00  0.00    +0.000 A 
ATOM     33  C   UNL     1       7.339  -0.674   3.564  0.00  0.00    +0.000 A 
ATOM     34  C   UNL     1       7.473  -2.047   3.347  0.00  0.00    +0.000 A 
ATOM     35  C   UNL     1       8.275  -0.099   4.402  0.00  0.00    +0.000 A 
ATOM     36  C   UNL     1       9.305  -2.076   4.727  0.00  0.00    +0.000 A 
ATOM     37  H   UNL     1       8.877   1.704   5.259  0.00  0.00    +0.000 HD
ATOM     38  H   UNL     1       7.756   1.880   3.939  0.00  0.00    +0.000 HD
ATOM     39  H   UNL     1      10.998  -2.370   5.938  0.00  0.00    +0.000 HD
ATOM     40  H   UNL     1      10.396  -3.822   5.149  0.00  0.00    +0.000 HD
ENDBRANCH  24  31
ENDBRANCH  22  24
ENDBRANCH   1  22
TORSDOF 11
ENDMDL
MODEL 6
REMARK VINA RESULT:    -8.666      1.783      3.056
REMARK INTER + INTRA:         -14.899
REMARK INTER:                 -13.905
REMARK INTRA:                  -0.994
REMARK UNBOUND:                -1.167
REMARK  Name = 126941
REMARK  12 active torsions:
REMARK  status: ('A' for Active; 'I' for Inactive)
REMARK    1  A    between atoms: O_1  and  C_23
REMARK    2  A    between atoms: OE1_4  and  CD_28
REMARK    3  A    between atoms: N_6  and  C_16
REMARK    4  A    between atoms: N_6  and  C_18
REMARK    5  A    between atoms: N_6  and  C_27
REMARK    6  A    between atoms: N_7  and  CA_14
REMARK    7  A    between atoms: CA_14  and  CB_15
REMARK    8  A    between atoms: CA_14  and  C_23
REMARK    9  A    between atoms: CB_15  and  CG_17
REMARK   10  A    between atoms: CG_17  and  CD_28
REMARK   11  A    between atoms: C_18  and  C_26
REMARK   12  A    between atoms: C_19  and  C_20
REMARK                            x       y       z     vdW  Elec       q    Type
REMARK                         _______ _______ _______ _____ _____    ______ ____
ROOT
ATOM      1  C   UNL     1       6.355   6.274   4.703  0.00  0.00    +0.000 A 
ATOM      2  C   UNL     1       5.079   8.738   4.411  0.00  0.00    +0.000 A 
ATOM      3  C   UNL     1       7.110   7.444   4.617  0.00  0.00    +0.000 A 
ATOM      4  C   UNL     1       4.963   6.336   4.643  0.00  0.00    +0.000 A 
ATOM      5  C   UNL     1       6.472   8.677   4.470  0.00  0.00    +0.000 A 
ATOM      6  C   UNL     1       4.326   7.567   4.497  0.00  0.00    +0.000 A 
ENDROOT
BRANCH   2   9
ATOM      7  O   UNL     1       5.078  11.057   4.068  0.00  0.00    +0.000 OA
ATOM      8  N   UNL     1       3.013  10.028   4.311  0.00  0.00    +0.000 N 
ATOM      9  C   ACE A   0       4.400  10.050   4.255  0.00  0.00    +0.000 C 
ATOM     10  H   UNL     1       2.518   9.145   4.386  0.00  0.00    +0.000 HD
BRANCH   8  11
ATOM     11  CA  UNL     1       2.212  11.215   4.152  0.00  0.00    +0.000 C 
BRANCH  11  13
ATOM     12  OXT UNL     1       0.087  10.315   4.932  0.00  0.00    +0.000 OA
ATOM     13  C   UNL     1       1.021  11.091   5.081  0.00  0.00    +0.000 C 
BRANCH  13  14
ATOM     14  O   UNL     1       1.120  11.930   6.146  0.00  0.00    +0.000 OA
ATOM     15  H   UNL     1       0.257  12.339   6.370  0.00  0.00    +0.000 HD
ENDBRANCH  13  14
ENDBRANCH  11  13
BRANCH  11  16
ATOM     16  CB  UNL     1       1.832  11.482   2.691  0.00  0.00    +0.000 C 
BRANCH  16  17
ATOM     17  CG  UNL     1       2.047  10.315   1.720  0.00  0.00    +0.000 C 
BRANCH  17  19
ATOM     18  OE2 UNL     1       1.777   7.984   2.377  0.00  0.00    +0.000 OA
ATOM     19  CD  UNL     1       1.279   9.063   2.091  0.00  0.00    +0.000 C 
BRANCH  19  20
ATOM     20  OE1 UNL     1      -0.063   9.265   2.028  0.00  0.00    +0.000 OA
ATOM     21  HE1 UNL     1      -0.286  10.103   1.572  0.00  0.00    +0.000 HD
ENDBRANCH  19  20
ENDBRANCH  17  19
ENDBRANCH  16  17
ENDBRANCH  11  16
ENDBRANCH   8  11
ENDBRANCH   2   9
BRANCH   1  22
ATOM     22  N   UNL     1       7.001   5.029   4.850  0.00  0.00    +0.000 N 
ATOM     23  C   UNL     1       8.427   4.911   4.624  0.00  0.00    +0.000 C 
BRANCH  22  24
ATOM     24  C   UNL     1       6.249   3.854   5.244  0.00  0.00    +0.000 C 
BRANCH  24  31
ATOM     25  N   UNL     1       6.334   1.582   4.360  0.00  0.00    +0.000 NA
ATOM     26  N   UNL     1       5.780   2.462   1.795  0.00  0.00    +0.000 NA
ATOM     27  N   UNL     1       5.873   0.284   1.012  0.00  0.00    +0.000 NA
ATOM     28  N   UNL     1       6.335  -1.541   2.498  0.00  0.00    +0.000 NA
ATOM     29  N   UNL     1       6.701  -1.115   4.793  0.00  0.00    +0.000 N 
ATOM     30  N   UNL     1       5.967  -1.922   0.217  0.00  0.00    +0.000 N 
ATOM     31  C   UNL     1       6.148   2.885   4.098  0.00  0.00    +0.000 A 
ATOM     32  C   UNL     1       5.873   3.319   2.830  0.00  0.00    +0.000 A 
ATOM     33  C   UNL     1       6.240   0.727   3.325  0.00  0.00    +0.000 A 
ATOM     34  C   UNL     1       5.962   1.156   2.025  0.00  0.00    +0.000 A 
ATOM     35  C   UNL     1       6.415  -0.634   3.489  0.00  0.00    +0.000 A 
ATOM     36  C   UNL     1       6.063  -1.017   1.297  0.00  0.00    +0.000 A 
ATOM     37  H   UNL     1       6.836  -2.113   4.896  0.00  0.00    +0.000 HD
ATOM     38  H   UNL     1       7.171  -0.495   5.440  0.00  0.00    +0.000 HD
ATOM     39  H   UNL     1       6.103  -2.909   0.382  0.00  0.00    +0.000 HD
ATOM     40  H   UNL     1       5.765  -1.570  -0.708  0.00  0.00    +0.000 HD
ENDBRANCH  24  31
ENDBRANCH  22  24
ENDBRANCH   1  22
TORSDOF 11
ENDMDL
MODEL 7
REMARK VINA RESULT:    -8.637      5.577     11.517
REMARK INTER + INTRA:         -14.854
REMARK INTER:                 -13.745
REMARK INTRA:                  -1.109
REMARK UNBOUND:                -1.167
REMARK  Name = 126941
REMARK  12 active torsions:
REMARK  status: ('A' for Active; 'I' for Inactive)
REMARK    1  A    between atoms: O_1  and  C_23
REMARK    2  A    between atoms: OE1_4  and  CD_28
REMARK    3  A    between atoms: N_6  and  C_16
REMARK    4  A    between atoms: N_6  and  C_18
REMARK    5  A    between atoms: N_6  and  C_27
REMARK    6  A    between atoms: N_7  and  CA_14
REMARK    7  A    between atoms: CA_14  and  CB_15
REMARK    8  A    between atoms: CA_14  and  C_23
REMARK    9  A    between atoms: CB_15  and  CG_17
REMARK   10  A    between atoms: CG_17  and  CD_28
REMARK   11  A    between atoms: C_18  and  C_26
REMARK   12  A    between atoms: C_19  and  C_20
REMARK                            x       y       z     vdW  Elec       q    Type
REMARK                         _______ _______ _______ _____ _____    ______ ____
ROOT
ATOM      1  C   UNL     1       4.509   2.521   2.439  0.00  0.00    +0.000 A 
ATOM      2  C   UNL     1       5.941   0.154   2.798  0.00  0.00    +0.000 A 
ATOM      3  C   UNL     1       5.165   2.280   3.647  0.00  0.00    +0.000 A 
ATOM      4  C   UNL     1       4.571   1.580   1.411  0.00  0.00    +0.000 A 
ATOM      5  C   UNL     1       5.881   1.095   3.826  0.00  0.00    +0.000 A 
ATOM      6  C   UNL     1       5.286   0.397   1.591  0.00  0.00    +0.000 A 
ENDROOT
BRANCH   2   9
ATOM      7  O   UNL     1       6.917  -1.831   2.021  0.00  0.00    +0.000 OA
ATOM      8  N   UNL     1       7.144  -1.361   4.281  0.00  0.00    +0.000 N 
ATOM      9  C   ACE A   0       6.703  -1.107   2.989  0.00  0.00    +0.000 C 
ATOM     10  H   UNL     1       7.000  -0.675   5.015  0.00  0.00    +0.000 HD
BRANCH   8  11
ATOM     11  CA  UNL     1       7.916  -2.529   4.621  0.00  0.00    +0.000 C 
BRANCH  11  13
ATOM     12  OXT UNL     1       6.244  -4.264   4.266  0.00  0.00    +0.000 OA
ATOM     13  C   UNL     1       6.946  -3.616   5.033  0.00  0.00    +0.000 C 
BRANCH  13  14
ATOM     14  O   UNL     1       6.962  -3.829   6.375  0.00  0.00    +0.000 OA
ATOM     15  H   UNL     1       6.256  -4.450   6.655  0.00  0.00    +0.000 HD
ENDBRANCH  13  14
ENDBRANCH  11  13
BRANCH  11  16
ATOM     16  CB  UNL     1       9.001  -2.240   5.665  0.00  0.00    +0.000 C 
BRANCH  16  17
ATOM     17  CG  UNL     1      10.419  -2.699   5.301  0.00  0.00    +0.000 C 
BRANCH  17  19
ATOM     18  OE2 UNL     1       9.945  -4.902   6.230  0.00  0.00    +0.000 OA
ATOM     19  CD  UNL     1      10.749  -4.097   5.782  0.00  0.00    +0.000 C 
BRANCH  19  20
ATOM     20  OE1 UNL     1      12.080  -4.352   5.697  0.00  0.00    +0.000 OA
ATOM     21  HE1 UNL     1      12.308  -5.233   6.065  0.00  0.00    +0.000 HD
ENDBRANCH  19  20
ENDBRANCH  17  19
ENDBRANCH  16  17
ENDBRANCH  11  16
ENDBRANCH   8  11
ENDBRANCH   2   9
BRANCH   1  22
ATOM     22  N   UNL     1       3.785   3.718   2.258  0.00  0.00    +0.000 N 
ATOM     23  C   UNL     1       3.812   4.406   0.982  0.00  0.00    +0.000 C 
BRANCH  22  24
ATOM     24  C   UNL     1       2.993   4.267   3.340  0.00  0.00    +0.000 C 
BRANCH  24  31
ATOM     25  N   UNL     1       2.575   6.666   3.196  0.00  0.00    +0.000 NA
ATOM     26  N   UNL     1       4.927   7.248   4.534  0.00  0.00    +0.000 NA
ATOM     27  N   UNL     1       4.479   9.514   4.368  0.00  0.00    +0.000 NA
ATOM     28  N   UNL     1       2.489  10.300   3.284  0.00  0.00    +0.000 NA
ATOM     29  N   UNL     1       0.963   8.744   2.371  0.00  0.00    +0.000 N 
ATOM     30  N   UNL     1       4.027  11.810   4.200  0.00  0.00    +0.000 N 
ATOM     31  C   UNL     1       3.394   5.690   3.617  0.00  0.00    +0.000 A 
ATOM     32  C   UNL     1       4.557   5.978   4.279  0.00  0.00    +0.000 A 
ATOM     33  C   UNL     1       2.947   7.934   3.452  0.00  0.00    +0.000 A 
ATOM     34  C   UNL     1       4.132   8.243   4.125  0.00  0.00    +0.000 A 
ATOM     35  C   UNL     1       2.175   9.011   3.060  0.00  0.00    +0.000 A 
ATOM     36  C   UNL     1       3.644  10.477   3.937  0.00  0.00    +0.000 A 
ATOM     37  H   UNL     1       0.412   9.543   2.082  0.00  0.00    +0.000 HD
ATOM     38  H   UNL     1       0.897   7.891   1.830  0.00  0.00    +0.000 HD
ATOM     39  H   UNL     1       3.432  12.567   3.895  0.00  0.00    +0.000 HD
ATOM     40  H   UNL     1       4.892  11.991   4.690  0.00  0.00    +0.000 HD
ENDBRANCH  24  31
ENDBRANCH  22  24
ENDBRANCH   1  22
TORSDOF 11
ENDMDL
MODEL 8
REMARK VINA RESULT:    -8.541      1.829      2.773
REMARK INTER + INTRA:         -14.701
REMARK INTER:                 -13.815
REMARK INTRA:                  -0.887
REMARK UNBOUND:                -1.167
REMARK  Name = 126941
REMARK  12 active torsions:
REMARK  status: ('A' for Active; 'I' for Inactive)
REMARK    1  A    between atoms: O_1  and  C_23
REMARK    2  A    between atoms: OE1_4  and  CD_28
REMARK    3  A    between atoms: N_6  and  C_16
REMARK    4  A    between atoms: N_6  and  C_18
REMARK    5  A    between atoms: N_6  and  C_27
REMARK    6  A    between atoms: N_7  and  CA_14
REMARK    7  A    between atoms: CA_14  and  CB_15
REMARK    8  A    between atoms: CA_14  and  C_23
REMARK    9  A    between atoms: CB_15  and  CG_17
REMARK   10  A    between atoms: CG_17  and  CD_28
REMARK   11  A    between atoms: C_18  and  C_26
REMARK   12  A    between atoms: C_19  and  C_20
REMARK                            x       y       z     vdW  Elec       q    Type
REMARK                         _______ _______ _______ _____ _____    ______ ____
ROOT
ATOM      1  C   UNL     1       4.710   2.429   2.239  0.00  0.00    +0.000 A 
ATOM      2  C   UNL     1       3.914   4.929   3.189  0.00  0.00    +0.000 A 
ATOM      3  C   UNL     1       5.667   3.350   2.668  0.00  0.00    +0.000 A 
ATOM      4  C   UNL     1       3.355   2.759   2.287  0.00  0.00    +0.000 A 
ATOM      5  C   UNL     1       5.269   4.600   3.142  0.00  0.00    +0.000 A 
ATOM      6  C   UNL     1       2.958   4.008   2.761  0.00  0.00    +0.000 A 
ENDROOT
BRANCH   2   9
ATOM      7  O   UNL     1       3.614   6.515   4.889  0.00  0.00    +0.000 OA
ATOM      8  N   UNL     1       2.996   7.143   2.743  0.00  0.00    +0.000 N 
ATOM      9  C   ACE A   0       3.490   6.261   3.694  0.00  0.00    +0.000 C 
ATOM     10  H   UNL     1       3.000   6.891   1.760  0.00  0.00    +0.000 HD
BRANCH   8  11
ATOM     11  CA  UNL     1       2.568   8.479   3.074  0.00  0.00    +0.000 C 
BRANCH  11  13
ATOM     12  OXT UNL     1       1.659   9.180   0.926  0.00  0.00    +0.000 OA
ATOM     13  C   UNL     1       1.478   8.866   2.096  0.00  0.00    +0.000 C 
BRANCH  13  14
ATOM     14  O   UNL     1       0.243   8.792   2.657  0.00  0.00    +0.000 OA
ATOM     15  H   UNL     1      -0.018   7.864   2.843  0.00  0.00    +0.000 HD
ENDBRANCH  13  14
ENDBRANCH  11  13
BRANCH  11  16
ATOM     16  CB  UNL     1       3.731   9.476   3.132  0.00  0.00    +0.000 C 
BRANCH  16  17
ATOM     17  CG  UNL     1       3.343  10.942   3.366  0.00  0.00    +0.000 C 
BRANCH  17  19
ATOM     18  OE2 UNL     1       4.701  12.344   1.908  0.00  0.00    +0.000 OA
ATOM     19  CD  UNL     1       3.620  11.843   2.182  0.00  0.00    +0.000 C 
BRANCH  19  20
ATOM     20  OE1 UNL     1       2.495  12.075   1.458  0.00  0.00    +0.000 OA
ATOM     21  HE1 UNL     1       2.651  11.974   0.495  0.00  0.00    +0.000 HD
ENDBRANCH  19  20
ENDBRANCH  17  19
ENDBRANCH  16  17
ENDBRANCH  11  16
ENDBRANCH   8  11
ENDBRANCH   2   9
BRANCH   1  22
ATOM     22  N   UNL     1       5.113   1.166   1.759  0.00  0.00    +0.000 N 
ATOM     23  C   UNL     1       5.831   1.054   0.505  0.00  0.00    +0.000 C 
BRANCH  22  24
ATOM     24  C   UNL     1       4.828  -0.034   2.520  0.00  0.00    +0.000 C 
BRANCH  24  31
ATOM     25  N   UNL     1       6.334  -1.828   3.197  0.00  0.00    +0.000 NA
ATOM     26  N   UNL     1       7.999  -0.056   4.519  0.00  0.00    +0.000 NA
ATOM     27  N   UNL     1       9.393  -1.800   5.133  0.00  0.00    +0.000 NA
ATOM     28  N   UNL     1       8.906  -4.056   4.481  0.00  0.00    +0.000 NA
ATOM     29  N   UNL     1       6.977  -4.509   3.193  0.00  0.00    +0.000 N 
ATOM     30  N   UNL     1      10.807  -3.566   5.756  0.00  0.00    +0.000 N 
ATOM     31  C   UNL     1       6.064  -0.514   3.228  0.00  0.00    +0.000 A 
ATOM     32  C   UNL     1       6.888   0.362   3.881  0.00  0.00    +0.000 A 
ATOM     33  C   UNL     1       7.445  -2.244   3.834  0.00  0.00    +0.000 A 
ATOM     34  C   UNL     1       8.294  -1.361   4.507  0.00  0.00    +0.000 A 
ATOM     35  C   UNL     1       7.811  -3.576   3.863  0.00  0.00    +0.000 A 
ATOM     36  C   UNL     1       9.645  -3.121   5.090  0.00  0.00    +0.000 A 
ATOM     37  H   UNL     1       7.253  -5.482   3.230  0.00  0.00    +0.000 HD
ATOM     38  H   UNL     1       5.993  -4.289   3.097  0.00  0.00    +0.000 HD
ATOM     39  H   UNL     1      11.037  -4.550   5.752  0.00  0.00    +0.000 HD
ATOM     40  H   UNL     1      11.395  -2.895   6.231  0.00  0.00    +0.000 HD
ENDBRANCH  24  31
ENDBRANCH  22  24
ENDBRANCH   1  22
TORSDOF 11
ENDMDL
MODEL 9
REMARK VINA RESULT:    -8.407      5.043     10.498
REMARK INTER + INTRA:         -14.488
REMARK INTER:                 -13.410
REMARK INTRA:                  -1.079
REMARK UNBOUND:                -1.167
REMARK  Name = 126941
REMARK  12 active torsions:
REMARK  status: ('A' for Active; 'I' for Inactive)
REMARK    1  A    between atoms: O_1  and  C_23
REMARK    2  A    between atoms: OE1_4  and  CD_28
REMARK    3  A    between atoms: N_6  and  C_16
REMARK    4  A    between atoms: N_6  and  C_18
REMARK    5  A    between atoms: N_6  and  C_27
REMARK    6  A    between atoms: N_7  and  CA_14
REMARK    7  A    between atoms: CA_14  and  CB_15
REMARK    8  A    between atoms: CA_14  and  C_23
REMARK    9  A    between atoms: CB_15  and  CG_17
REMARK   10  A    between atoms: CG_17  and  CD_28
REMARK   11  A    between atoms: C_18  and  C_26
REMARK   12  A    between atoms: C_19  and  C_20
REMARK                            x       y       z     vdW  Elec       q    Type
REMARK                         _______ _______ _______ _____ _____    ______ ____
ROOT
ATOM      1  C   UNL     1       3.874   5.889   3.270  0.00  0.00    +0.000 A 
ATOM      2  C   UNL     1       5.099   3.468   2.623  0.00  0.00    +0.000 A 
ATOM      3  C   UNL     1       3.528   5.226   2.092  0.00  0.00    +0.000 A 
ATOM      4  C   UNL     1       4.831   5.340   4.124  0.00  0.00    +0.000 A 
ATOM      5  C   UNL     1       4.141   4.015   1.768  0.00  0.00    +0.000 A 
ATOM      6  C   UNL     1       5.443   4.131   3.801  0.00  0.00    +0.000 A 
ENDROOT
BRANCH   2   9
ATOM      7  O   UNL     1       6.515   1.657   3.086  0.00  0.00    +0.000 OA
ATOM      8  N   UNL     1       5.417   1.638   1.043  0.00  0.00    +0.000 N 
ATOM      9  C   ACE A   0       5.751   2.178   2.278  0.00  0.00    +0.000 C 
ATOM     10  H   UNL     1       4.714   2.085   0.463  0.00  0.00    +0.000 HD
BRANCH   8  11
ATOM     11  CA  UNL     1       5.947   0.382   0.577  0.00  0.00    +0.000 C 
BRANCH  11  13
ATOM     12  OXT UNL     1       4.994   0.900  -1.604  0.00  0.00    +0.000 OA
ATOM     13  C   UNL     1       5.887   0.393  -0.937  0.00  0.00    +0.000 C 
BRANCH  13  14
ATOM     14  O   UNL     1       6.974  -0.204  -1.492  0.00  0.00    +0.000 OA
ATOM     15  H   UNL     1       6.721  -0.870  -2.166  0.00  0.00    +0.000 HD
ENDBRANCH  13  14
ENDBRANCH  11  13
BRANCH  11  16
ATOM     16  CB  UNL     1       5.255  -0.828   1.216  0.00  0.00    +0.000 C 
BRANCH  16  17
ATOM     17  CG  UNL     1       6.179  -1.964   1.670  0.00  0.00    +0.000 C 
BRANCH  17  19
ATOM     18  OE2 UNL     1       6.221  -2.084   4.104  0.00  0.00    +0.000 OA
ATOM     19  CD  UNL     1       6.759  -1.761   3.055  0.00  0.00    +0.000 C 
BRANCH  19  20
ATOM     20  OE1 UNL     1       7.960  -1.128   3.005  0.00  0.00    +0.000 OA
ATOM     21  HE1 UNL     1       8.425  -1.291   2.157  0.00  0.00    +0.000 HD
ENDBRANCH  19  20
ENDBRANCH  17  19
ENDBRANCH  16  17
ENDBRANCH  11  16
ENDBRANCH   8  11
ENDBRANCH   2   9
BRANCH   1  22
ATOM     22  N   UNL     1       3.255   7.113   3.597  0.00  0.00    +0.000 N 
ATOM     23  C   UNL     1       2.134   7.599   2.817  0.00  0.00    +0.000 C 
BRANCH  22  24
ATOM     24  C   UNL     1       3.721   7.894   4.726  0.00  0.00    +0.000 C 
BRANCH  24  31
ATOM     25  N   UNL     1       5.999   8.742   4.534  0.00  0.00    +0.000 NA
ATOM     26  N   UNL     1       5.140  11.011   3.203  0.00  0.00    +0.000 NA
ATOM     27  N   UNL     1       7.323  11.767   3.050  0.00  0.00    +0.000 NA
ATOM     28  N   UNL     1       9.137  10.487   3.958  0.00  0.00    +0.000 NA
ATOM     29  N   UNL     1       8.694   8.425   5.023  0.00  0.00    +0.000 N 
ATOM     30  N   UNL     1       9.535  12.535   2.894  0.00  0.00    +0.000 N 
ATOM     31  C   UNL     1       4.699   8.943   4.273  0.00  0.00    +0.000 A 
ATOM     32  C   UNL     1       4.274  10.064   3.614  0.00  0.00    +0.000 A 
ATOM     33  C   UNL     1       6.863   9.689   4.122  0.00  0.00    +0.000 A 
ATOM     34  C   UNL     1       6.444  10.840   3.450  0.00  0.00    +0.000 A 
ATOM     35  C   UNL     1       8.222   9.578   4.343  0.00  0.00    +0.000 A 
ATOM     36  C   UNL     1       8.622  11.547   3.322  0.00  0.00    +0.000 A 
ATOM     37  H   UNL     1       9.690   8.362   5.186  0.00  0.00    +0.000 HD
ATOM     38  H   UNL     1       8.068   7.963   5.672  0.00  0.00    +0.000 HD
ATOM     39  H   UNL     1      10.521  12.414   3.077  0.00  0.00    +0.000 HD
ATOM     40  H   UNL     1       9.191  13.353   2.412  0.00  0.00    +0.000 HD
ENDBRANCH  24  31
ENDBRANCH  22  24
ENDBRANCH   1  22
TORSDOF 11
ENDMDL
