MODEL 1
REMARK VINA RESULT:    -9.308      0.000      0.000
REMARK INTER + INTRA:         -16.093
REMARK INTER:                 -14.750
REMARK INTRA:                  -1.343
REMARK UNBOUND:                -1.343
REMARK  Name = 126941
REMARK  12 active torsions:
REMARK  status: ('A' for Active; 'I' for Inactive)
REMARK    1  A    between atoms: O_1  and  C_23
REMARK    2  A    between atoms: OE1_4  and  CD_28
REMARK    3  A    between atoms: N_6  and  C_16
REMARK    4  A    between atoms: N_6  and  C_18
REMARK    5  A    between atoms: N_6  and  C_27
REMARK    6  A    between atoms: N_7  and  CA_14
REMARK    7  A    between atoms: CA_14  and  CB_15
REMARK    8  A    between atoms: CA_14  and  C_23
REMARK    9  A    between atoms: CB_15  and  CG_17
REMARK   10  A    between atoms: CG_17  and  CD_28
REMARK   11  A    between atoms: C_18  and  C_26
REMARK   12  A    between atoms: C_19  and  C_20
REMARK                            x       y       z     vdW  Elec       q    Type
REMARK                         _______ _______ _______ _____ _____    ______ ____
ROOT
ATOM      1  C   UNL     1       4.229   2.338   0.587  0.00  0.00    +0.000 A 
ATOM      2  C   UNL     1       3.409   4.493   2.157  0.00  0.00    +0.000 A 
ATOM      3  C   UNL     1       3.693   2.112   1.856  0.00  0.00    +0.000 A 
ATOM      4  C   UNL     1       4.354   3.641   0.105  0.00  0.00    +0.000 A 
ATOM      5  C   UNL     1       3.283   3.191   2.641  0.00  0.00    +0.000 A 
ATOM      6  C   UNL     1       3.944   4.717   0.889  0.00  0.00    +0.000 A 
ENDROOT
BRANCH   2   9
ATOM      7  O   UNL     1       2.755   5.463   4.189  0.00  0.00    +0.000 OA
ATOM      8  N   UNL     1       2.865   6.863   2.342  0.00  0.00    +0.000 N 
ATOM      9  C   ACE A   0       2.972   5.641   2.994  0.00  0.00    +0.000 C 
ATOM     10  H   UNL     1       3.140   6.950   1.370  0.00  0.00    +0.000 HD
BRANCH   8  11
ATOM     11  CA  UNL     1       2.477   8.072   3.023  0.00  0.00    +0.000 C 
BRANCH  11  13
ATOM     12  OXT UNL     1       0.300   8.950   2.372  0.00  0.00    +0.000 OA
ATOM     13  C   UNL     1       1.492   8.803   2.133  0.00  0.00    +0.000 C 
BRANCH  13  14
ATOM     14  O   UNL     1       2.093   9.323   1.031  0.00  0.00    +0.000 OA
ATOM     15  H   UNL     1       2.559   8.635   0.510  0.00  0.00    +0.000 HD
ENDBRANCH  13  14
ENDBRANCH  11  13
BRANCH  11  16
ATOM     16  CB  UNL     1       3.679   8.925   3.447  0.00  0.00    +0.000 C 
BRANCH  16  17
ATOM     17  CG  UNL     1       4.256   8.622   4.835  0.00  0.00    +0.000 C 
BRANCH  17  19
ATOM     18  OE2 UNL     1       6.629   8.252   4.422  0.00  0.00    +0.000 OA
ATOM     19  CD  UNL     1       5.546   7.829   4.799  0.00  0.00    +0.000 C 
BRANCH  19  20
ATOM     20  OE1 UNL     1       5.355   6.547   5.205  0.00  0.00    +0.000 OA
ATOM     21  HE1 UNL     1       6.177   6.151   5.565  0.00  0.00    +0.000 HD
ENDBRANCH  19  20
ENDBRANCH  17  19
ENDBRANCH  16  17
ENDBRANCH  11  16
ENDBRANCH   8  11
ENDBRANCH   2   9
BRANCH   1  22
ATOM     22  N   UNL     1       4.644   1.248  -0.206  0.00  0.00    +0.000 N 
ATOM     23  C   UNL     1       3.722   0.623  -1.133  0.00  0.00    +0.000 C 
BRANCH  22  24
ATOM     24  C   UNL     1       6.001   0.749  -0.115  0.00  0.00    +0.000 C 
BRANCH  24  31
ATOM     25  N   UNL     1       6.691   0.076   2.126  0.00  0.00    +0.000 NA
ATOM     26  N   UNL     1       5.722  -2.489   1.753  0.00  0.00    +0.000 NA
ATOM     27  N   UNL     1       6.398  -3.071   3.890  0.00  0.00    +0.000 NA
ATOM     28  N   UNL     1       7.482  -1.477   5.317  0.00  0.00    +0.000 NA
ATOM     29  N   UNL     1       7.867   0.719   4.535  0.00  0.00    +0.000 N 
ATOM     30  N   UNL     1       7.083  -3.663   6.055  0.00  0.00    +0.000 N 
ATOM     31  C   UNL     1       6.110  -0.286   0.971  0.00  0.00    +0.000 A 
ATOM     32  C   UNL     1       5.631  -1.554   0.788  0.00  0.00    +0.000 A 
ATOM     33  C   UNL     1       6.780  -0.860   3.090  0.00  0.00    +0.000 A 
ATOM     34  C   UNL     1       6.297  -2.159   2.915  0.00  0.00    +0.000 A 
ATOM     35  C   UNL     1       7.361  -0.589   4.313  0.00  0.00    +0.000 A 
ATOM     36  C   UNL     1       6.984  -2.688   5.039  0.00  0.00    +0.000 A 
ATOM     37  H   UNL     1       8.298   0.900   5.432  0.00  0.00    +0.000 HD
ATOM     38  H   UNL     1       8.178   1.254   3.733  0.00  0.00    +0.000 HD
ATOM     39  H   UNL     1       7.515  -3.422   6.935  0.00  0.00    +0.000 HD
ATOM     40  H   UNL     1       6.721  -4.592   5.889  0.00  0.00    +0.000 HD
ENDBRANCH  24  31
ENDBRANCH  22  24
ENDBRANCH   1  22
TORSDOF 11
ENDMDL
MODEL 2
REMARK VINA RESULT:    -9.091      6.351     11.359
REMARK INTER + INTRA:         -15.748
REMARK INTER:                 -14.716
REMARK INTRA:                  -1.032
REMARK UNBOUND:                -1.343
REMARK  Name = 126941
REMARK  12 active torsions:
REMARK  status: ('A' for Active; 'I' for Inactive)
REMARK    1  A    between atoms: O_1  and  C_23
REMARK    2  A    between atoms: OE1_4  and  CD_28
REMARK    3  A    between atoms: N_6  and  C_16
REMARK    4  A    between atoms: N_6  and  C_18
REMARK    5  A    between atoms: N_6  and  C_27
REMARK    6  A    between atoms: N_7  and  CA_14
REMARK    7  A    between atoms: CA_14  and  CB_15
REMARK    8  A    between atoms: CA_14  and  C_23
REMARK    9  A    between atoms: CB_15  and  CG_17
REMARK   10  A    between atoms: CG_17  and  CD_28
REMARK   11  A    between atoms: C_18  and  C_26
REMARK   12  A    between atoms: C_19  and  C_20
REMARK                            x       y       z     vdW  Elec       q    Type
REMARK                         _______ _______ _______ _____ _____    ______ ____
ROOT
ATOM      1  C   UNL     1       7.091  -2.184   4.331  0.00  0.00    +0.000 A 
ATOM      2  C   UNL     1       7.499  -4.765   5.308  0.00  0.00    +0.000 A 
ATOM      3  C   UNL     1       6.981  -3.280   3.474  0.00  0.00    +0.000 A 
ATOM      4  C   UNL     1       7.404  -2.379   5.676  0.00  0.00    +0.000 A 
ATOM      5  C   UNL     1       7.185  -4.571   3.963  0.00  0.00    +0.000 A 
ATOM      6  C   UNL     1       7.608  -3.669   6.164  0.00  0.00    +0.000 A 
ENDROOT
BRANCH   2   9
ATOM      7  O   UNL     1       8.863  -6.524   6.044  0.00  0.00    +0.000 OA
ATOM      8  N   UNL     1       6.572  -6.892   6.058  0.00  0.00    +0.000 N 
ATOM      9  C   ACE A   0       7.717  -6.140   5.829  0.00  0.00    +0.000 C 
ATOM     10  H   UNL     1       5.654  -6.477   5.933  0.00  0.00    +0.000 HD
BRANCH   8  11
ATOM     11  CA  UNL     1       6.618  -8.232   6.584  0.00  0.00    +0.000 C 
BRANCH  11  13
ATOM     12  OXT UNL     1       5.700  -9.677   4.852  0.00  0.00    +0.000 OA
ATOM     13  C   UNL     1       6.673  -9.185   5.407  0.00  0.00    +0.000 C 
BRANCH  13  14
ATOM     14  O   UNL     1       7.949  -9.412   4.998  0.00  0.00    +0.000 OA
ATOM     15  H   UNL     1       8.000  -9.564   4.030  0.00  0.00    +0.000 HD
ENDBRANCH  13  14
ENDBRANCH  11  13
BRANCH  11  16
ATOM     16  CB  UNL     1       5.475  -8.524   7.564  0.00  0.00    +0.000 C 
BRANCH  16  17
ATOM     17  CG  UNL     1       4.094  -7.998   7.155  0.00  0.00    +0.000 C 
BRANCH  17  19
ATOM     18  OE2 UNL     1       3.792  -5.601   7.467  0.00  0.00    +0.000 OA
ATOM     19  CD  UNL     1       3.678  -6.742   7.890  0.00  0.00    +0.000 C 
BRANCH  19  20
ATOM     20  OE1 UNL     1       3.187  -7.026   9.125  0.00  0.00    +0.000 OA
ATOM     21  HE1 UNL     1       2.442  -6.435   9.367  0.00  0.00    +0.000 HD
ENDBRANCH  19  20
ENDBRANCH  17  19
ENDBRANCH  16  17
ENDBRANCH  11  16
ENDBRANCH   8  11
ENDBRANCH   2   9
BRANCH   1  22
ATOM     22  N   UNL     1       6.885  -0.879   3.836  0.00  0.00    +0.000 N 
ATOM     23  C   UNL     1       8.006  -0.083   3.381  0.00  0.00    +0.000 C 
BRANCH  22  24
ATOM     24  C   UNL     1       5.548  -0.325   3.762  0.00  0.00    +0.000 C 
BRANCH  24  31
ATOM     25  N   UNL     1       4.958   1.346   2.086  0.00  0.00    +0.000 NA
ATOM     26  N   UNL     1       4.873  -0.561   0.083  0.00  0.00    +0.000 NA
ATOM     27  N   UNL     1       4.315   1.068  -1.465  0.00  0.00    +0.000 NA
ATOM     28  N   UNL     1       4.077   3.362  -0.809  0.00  0.00    +0.000 NA
ATOM     29  N   UNL     1       4.416   3.973   1.449  0.00  0.00    +0.000 N 
ATOM     30  N   UNL     1       3.748   2.717  -3.036  0.00  0.00    +0.000 N 
ATOM     31  C   UNL     1       5.213   0.054   2.346  0.00  0.00    +0.000 A 
ATOM     32  C   UNL     1       5.172  -0.888   1.355  0.00  0.00    +0.000 A 
ATOM     33  C   UNL     1       4.660   1.671   0.814  0.00  0.00    +0.000 A 
ATOM     34  C   UNL     1       4.613   0.719  -0.208  0.00  0.00    +0.000 A 
ATOM     35  C   UNL     1       4.381   2.972   0.443  0.00  0.00    +0.000 A 
ATOM     36  C   UNL     1       4.062   2.368  -1.704  0.00  0.00    +0.000 A 
ATOM     37  H   UNL     1       4.201   4.919   1.163  0.00  0.00    +0.000 HD
ATOM     38  H   UNL     1       4.220   3.699   2.403  0.00  0.00    +0.000 HD
ATOM     39  H   UNL     1       3.550   3.681  -3.263  0.00  0.00    +0.000 HD
ATOM     40  H   UNL     1       3.724   1.998  -3.745  0.00  0.00    +0.000 HD
ENDBRANCH  24  31
ENDBRANCH  22  24
ENDBRANCH   1  22
TORSDOF 11
ENDMDL
MODEL 3
REMARK VINA RESULT:    -9.072      6.519     11.460
REMARK INTER + INTRA:         -15.719
REMARK INTER:                 -14.935
REMARK INTRA:                  -0.783
REMARK UNBOUND:                -1.343
REMARK  Name = 126941
REMARK  12 active torsions:
REMARK  status: ('A' for Active; 'I' for Inactive)
REMARK    1  A    between atoms: O_1  and  C_23
REMARK    2  A    between atoms: OE1_4  and  CD_28
REMARK    3  A    between atoms: N_6  and  C_16
REMARK    4  A    between atoms: N_6  and  C_18
REMARK    5  A    between atoms: N_6  and  C_27
REMARK    6  A    between atoms: N_7  and  CA_14
REMARK    7  A    between atoms: CA_14  and  CB_15
REMARK    8  A    between atoms: CA_14  and  C_23
REMARK    9  A    between atoms: CB_15  and  CG_17
REMARK   10  A    between atoms: CG_17  and  CD_28
REMARK   11  A    between atoms: C_18  and  C_26
REMARK   12  A    between atoms: C_19  and  C_20
REMARK                            x       y       z     vdW  Elec       q    Type
REMARK                         _______ _______ _______ _____ _____    ______ ____
ROOT
ATOM      1  C   UNL     1       7.627  -2.176   4.721  0.00  0.00    +0.000 A 
ATOM      2  C   UNL     1       7.832  -4.827   5.566  0.00  0.00    +0.000 A 
ATOM      3  C   UNL     1       7.854  -3.190   3.789  0.00  0.00    +0.000 A 
ATOM      4  C   UNL     1       7.503  -2.489   6.075  0.00  0.00    +0.000 A 
ATOM      5  C   UNL     1       7.956  -4.516   4.211  0.00  0.00    +0.000 A 
ATOM      6  C   UNL     1       7.605  -3.814   6.497  0.00  0.00    +0.000 A 
ENDROOT
BRANCH   2   9
ATOM      7  O   UNL     1       9.052  -6.712   6.242  0.00  0.00    +0.000 OA
ATOM      8  N   UNL     1       6.743  -6.923   6.170  0.00  0.00    +0.000 N 
ATOM      9  C   ACE A   0       7.942  -6.239   6.016  0.00  0.00    +0.000 C 
ATOM     10  H   UNL     1       5.859  -6.442   6.043  0.00  0.00    +0.000 HD
BRANCH   8  11
ATOM     11  CA  UNL     1       6.684  -8.290   6.622  0.00  0.00    +0.000 C 
BRANCH  11  13
ATOM     12  OXT UNL     1       5.877  -9.636   4.760  0.00  0.00    +0.000 OA
ATOM     13  C   UNL     1       6.813  -9.182   5.405  0.00  0.00    +0.000 C 
BRANCH  13  14
ATOM     14  O   UNL     1       8.113  -9.401   5.073  0.00  0.00    +0.000 OA
ATOM     15  H   UNL     1       8.208 -10.148   4.444  0.00  0.00    +0.000 HD
ENDBRANCH  13  14
ENDBRANCH  11  13
BRANCH  11  16
ATOM     16  CB  UNL     1       5.441  -8.579   7.472  0.00  0.00    +0.000 C 
BRANCH  16  17
ATOM     17  CG  UNL     1       4.135  -7.939   6.986  0.00  0.00    +0.000 C 
BRANCH  17  19
ATOM     18  OE2 UNL     1       3.722  -5.581   7.442  0.00  0.00    +0.000 OA
ATOM     19  CD  UNL     1       3.696  -6.747   7.810  0.00  0.00    +0.000 C 
BRANCH  19  20
ATOM     20  OE1 UNL     1       3.297  -7.119   9.053  0.00  0.00    +0.000 OA
ATOM     21  HE1 UNL     1       2.516  -6.608   9.356  0.00  0.00    +0.000 HD
ENDBRANCH  19  20
ENDBRANCH  17  19
ENDBRANCH  16  17
ENDBRANCH  11  16
ENDBRANCH   8  11
ENDBRANCH   2   9
BRANCH   1  22
ATOM     22  N   UNL     1       7.525  -0.836   4.294  0.00  0.00    +0.000 N 
ATOM     23  C   UNL     1       8.678  -0.151   3.745  0.00  0.00    +0.000 C 
BRANCH  22  24
ATOM     24  C   UNL     1       6.261  -0.132   4.383  0.00  0.00    +0.000 C 
BRANCH  24  31
ATOM     25  N   UNL     1       5.630   0.078   2.036  0.00  0.00    +0.000 NA
ATOM     26  N   UNL     1       6.039   2.815   2.077  0.00  0.00    +0.000 NA
ATOM     27  N   UNL     1       5.430   2.955  -0.153  0.00  0.00    +0.000 NA
ATOM     28  N   UNL     1       4.798   0.995  -1.383  0.00  0.00    +0.000 NA
ATOM     29  N   UNL     1       4.796  -1.109  -0.308  0.00  0.00    +0.000 N 
ATOM     30  N   UNL     1       4.813   3.098  -2.412  0.00  0.00    +0.000 N 
ATOM     31  C   UNL     1       6.036   0.703   3.152  0.00  0.00    +0.000 A 
ATOM     32  C   UNL     1       6.237   2.056   3.172  0.00  0.00    +0.000 A 
ATOM     33  C   UNL     1       5.431   0.839   0.943  0.00  0.00    +0.000 A 
ATOM     34  C   UNL     1       5.634   2.221   0.948  0.00  0.00    +0.000 A 
ATOM     35  C   UNL     1       5.014   0.293  -0.256  0.00  0.00    +0.000 A 
ATOM     36  C   UNL     1       5.023   2.308  -1.261  0.00  0.00    +0.000 A 
ATOM     37  H   UNL     1       4.499  -1.496  -1.195  0.00  0.00    +0.000 HD
ATOM     38  H   UNL     1       5.321  -1.699   0.326  0.00  0.00    +0.000 HD
ATOM     39  H   UNL     1       4.508   2.657  -3.268  0.00  0.00    +0.000 HD
ATOM     40  H   UNL     1       4.972   4.095  -2.367  0.00  0.00    +0.000 HD
ENDBRANCH  24  31
ENDBRANCH  22  24
ENDBRANCH   1  22
TORSDOF 11
ENDMDL
MODEL 4
REMARK VINA RESULT:    -9.048      3.768      7.075
REMARK INTER + INTRA:         -15.681
REMARK INTER:                 -14.632
REMARK INTRA:                  -1.049
REMARK UNBOUND:                -1.343
REMARK  Name = 126941
REMARK  12 active torsions:
REMARK  status: ('A' for Active; 'I' for Inactive)
REMARK    1  A    between atoms: O_1  and  C_23
REMARK    2  A    between atoms: OE1_4  and  CD_28
REMARK    3  A    between atoms: N_6  and  C_16
REMARK    4  A    between atoms: N_6  and  C_18
REMARK    5  A    between atoms: N_6  and  C_27
REMARK    6  A    between atoms: N_7  and  CA_14
REMARK    7  A    between atoms: CA_14  and  CB_15
REMARK    8  A    between atoms: CA_14  and  C_23
REMARK    9  A    between atoms: CB_15  and  CG_17
REMARK   10  A    between atoms: CG_17  and  CD_28
REMARK   11  A    between atoms: C_18  and  C_26
REMARK   12  A    between atoms: C_19  and  C_20
REMARK                            x       y       z     vdW  Elec       q    Type
REMARK                         _______ _______ _______ _____ _____    ______ ____
ROOT
ATOM      1  C   UNL     1       7.622  -1.836   4.089  0.00  0.00    +0.000 A 
ATOM      2  C   UNL     1       6.170  -1.076   1.831  0.00  0.00    +0.000 A 
ATOM      3  C   UNL     1       7.116  -0.540   3.990  0.00  0.00    +0.000 A 
ATOM      4  C   UNL     1       7.401  -2.752   3.060  0.00  0.00    +0.000 A 
ATOM      5  C   UNL     1       6.389  -0.160   2.860  0.00  0.00    +0.000 A 
ATOM      6  C   UNL     1       6.676  -2.372   1.932  0.00  0.00    +0.000 A 
ENDROOT
BRANCH   2   9
ATOM      7  O   UNL     1       4.861  -1.536  -0.059  0.00  0.00    +0.000 OA
ATOM      8  N   UNL     1       5.320   0.694   0.386  0.00  0.00    +0.000 N 
ATOM      9  C   ACE A   0       5.396  -0.671   0.629  0.00  0.00    +0.000 C 
ATOM     10  H   UNL     1       5.720   1.354   1.045  0.00  0.00    +0.000 HD
BRANCH   8  11
ATOM     11  CA  UNL     1       4.586   1.243  -0.725  0.00  0.00    +0.000 C 
BRANCH  11  13
ATOM     12  OXT UNL     1       6.778   2.003  -1.469  0.00  0.00    +0.000 OA
ATOM     13  C   UNL     1       5.558   2.049  -1.562  0.00  0.00    +0.000 C 
BRANCH  13  14
ATOM     14  O   UNL     1       4.918   2.823  -2.478  0.00  0.00    +0.000 OA
ATOM     15  H   UNL     1       4.051   3.139  -2.147  0.00  0.00    +0.000 HD
ENDBRANCH  13  14
ENDBRANCH  11  13
BRANCH  11  16
ATOM     16  CB  UNL     1       3.346   2.031  -0.286  0.00  0.00    +0.000 C 
BRANCH  16  17
ATOM     17  CG  UNL     1       3.394   2.616   1.131  0.00  0.00    +0.000 C 
BRANCH  17  19
ATOM     18  OE2 UNL     1       3.682   4.805   2.161  0.00  0.00    +0.000 OA
ATOM     19  CD  UNL     1       3.734   4.092   1.170  0.00  0.00    +0.000 C 
BRANCH  19  20
ATOM     20  OE1 UNL     1       4.072   4.559  -0.059  0.00  0.00    +0.000 OA
ATOM     21  HE1 UNL     1       4.810   4.047  -0.455  0.00  0.00    +0.000 HD
ENDBRANCH  19  20
ENDBRANCH  17  19
ENDBRANCH  16  17
ENDBRANCH  11  16
ENDBRANCH   8  11
ENDBRANCH   2   9
BRANCH   1  22
ATOM     22  N   UNL     1       8.357  -2.220   5.230  0.00  0.00    +0.000 N 
ATOM     23  C   UNL     1       9.801  -2.097   5.248  0.00  0.00    +0.000 C 
BRANCH  22  24
ATOM     24  C   UNL     1       7.676  -2.727   6.405  0.00  0.00    +0.000 C 
BRANCH  24  31
ATOM     25  N   UNL     1       6.300  -4.731   6.596  0.00  0.00    +0.000 NA
ATOM     26  N   UNL     1       8.413  -6.362   5.864  0.00  0.00    +0.000 NA
ATOM     27  N   UNL     1       7.059  -8.230   6.062  0.00  0.00    +0.000 NA
ATOM     28  N   UNL     1       4.760  -8.023   6.713  0.00  0.00    +0.000 NA
ATOM     29  N   UNL     1       3.860  -5.884   7.160  0.00  0.00    +0.000 N 
ATOM     30  N   UNL     1       5.688 -10.125   6.262  0.00  0.00    +0.000 N 
ATOM     31  C   UNL     1       7.507  -4.218   6.313  0.00  0.00    +0.000 A 
ATOM     32  C   UNL     1       8.551  -5.025   5.950  0.00  0.00    +0.000 A 
ATOM     33  C   UNL     1       6.164  -6.068   6.509  0.00  0.00    +0.000 A 
ATOM     34  C   UNL     1       7.221  -6.904   6.142  0.00  0.00    +0.000 A 
ATOM     35  C   UNL     1       4.963  -6.694   6.781  0.00  0.00    +0.000 A 
ATOM     36  C   UNL     1       5.841  -8.724   6.351  0.00  0.00    +0.000 A 
ATOM     37  H   UNL     1       2.990  -6.358   7.365  0.00  0.00    +0.000 HD
ATOM     38  H   UNL     1       4.050  -5.002   7.619  0.00  0.00    +0.000 HD
ATOM     39  H   UNL     1       4.792 -10.541   6.470  0.00  0.00    +0.000 HD
ATOM     40  H   UNL     1       6.478 -10.694   5.994  0.00  0.00    +0.000 HD
ENDBRANCH  24  31
ENDBRANCH  22  24
ENDBRANCH   1  22
TORSDOF 11
ENDMDL
MODEL 5
REMARK VINA RESULT:    -8.671      5.441     10.218
REMARK INTER + INTRA:         -15.084
REMARK INTER:                 -14.151
REMARK INTRA:                  -0.933
REMARK UNBOUND:                -1.343
REMARK  Name = 126941
REMARK  12 active torsions:
REMARK  status: ('A' for Active; 'I' for Inactive)
REMARK    1  A    between atoms: O_1  and  C_23
REMARK    2  A    between atoms: OE1_4  and  CD_28
REMARK    3  A    between atoms: N_6  and  C_16
REMARK    4  A    between atoms: N_6  and  C_18
REMARK    5  A    between atoms: N_6  and  C_27
REMARK    6  A    between atoms: N_7  and  CA_14
REMARK    7  A    between atoms: CA_14  and  CB_15
REMARK    8  A    between atoms: CA_14  and  C_23
REMARK    9  A    between atoms: CB_15  and  CG_17
REMARK   10  A    between atoms: CG_17  and  CD_28
REMARK   11  A    between atoms: C_18  and  C_26
REMARK   12  A    between atoms: C_19  and  C_20
REMARK                            x       y       z     vdW  Elec       q    Type
REMARK                         _______ _______ _______ _____ _____    ______ ____
ROOT
ATOM      1  C   UNL     1       6.301  -0.932   1.141  0.00  0.00    +0.000 A 
ATOM      2  C   UNL     1       6.733  -2.029   3.669  0.00  0.00    +0.000 A 
ATOM      3  C   UNL     1       5.967  -2.264   1.389  0.00  0.00    +0.000 A 
ATOM      4  C   UNL     1       6.849  -0.149   2.157  0.00  0.00    +0.000 A 
ATOM      5  C   UNL     1       6.184  -2.813   2.654  0.00  0.00    +0.000 A 
ATOM      6  C   UNL     1       7.065  -0.698   3.421  0.00  0.00    +0.000 A 
ENDROOT
BRANCH   2   9
ATOM      7  O   UNL     1       7.120  -1.865   5.976  0.00  0.00    +0.000 OA
ATOM      8  N   UNL     1       6.958  -4.001   5.085  0.00  0.00    +0.000 N 
ATOM      9  C   ACE A   0       6.963  -2.614   5.016  0.00  0.00    +0.000 C 
ATOM     10  H   UNL     1       6.740  -4.554   4.263  0.00  0.00    +0.000 HD
BRANCH   8  11
ATOM     11  CA  UNL     1       7.143  -4.715   6.323  0.00  0.00    +0.000 C 
BRANCH  11  13
ATOM     12  OXT UNL     1       9.182  -5.298   7.521  0.00  0.00    +0.000 OA
ATOM     13  C   UNL     1       8.624  -4.994   6.475  0.00  0.00    +0.000 C 
BRANCH  13  14
ATOM     14  O   UNL     1       9.281  -4.906   5.288  0.00  0.00    +0.000 OA
ATOM     15  H   UNL     1       9.703  -5.756   5.041  0.00  0.00    +0.000 HD
ENDBRANCH  13  14
ENDBRANCH  11  13
BRANCH  11  16
ATOM     16  CB  UNL     1       6.264  -5.968   6.422  0.00  0.00    +0.000 C 
BRANCH  16  17
ATOM     17  CG  UNL     1       6.677  -7.145   5.529  0.00  0.00    +0.000 C 
BRANCH  17  19
ATOM     18  OE2 UNL     1       5.200  -9.066   5.273  0.00  0.00    +0.000 OA
ATOM     19  CD  UNL     1       6.040  -8.462   5.923  0.00  0.00    +0.000 C 
BRANCH  19  20
ATOM     20  OE1 UNL     1       6.487  -8.890   7.132  0.00  0.00    +0.000 OA
ATOM     21  HE1 UNL     1       6.673  -9.853   7.133  0.00  0.00    +0.000 HD
ENDBRANCH  19  20
ENDBRANCH  17  19
ENDBRANCH  16  17
ENDBRANCH  11  16
ENDBRANCH   8  11
ENDBRANCH   2   9
BRANCH   1  22
ATOM     22  N   UNL     1       6.082  -0.377  -0.137  0.00  0.00    +0.000 N 
ATOM     23  C   UNL     1       7.171  -0.280  -1.090  0.00  0.00    +0.000 C 
BRANCH  22  24
ATOM     24  C   UNL     1       4.765   0.088  -0.521  0.00  0.00    +0.000 C 
BRANCH  24  31
ATOM     25  N   UNL     1       3.720   1.484   1.184  0.00  0.00    +0.000 NA
ATOM     26  N   UNL     1       4.756   3.791   0.060  0.00  0.00    +0.000 NA
ATOM     27  N   UNL     1       3.741   5.066   1.705  0.00  0.00    +0.000 NA
ATOM     28  N   UNL     1       2.425   4.038   3.426  0.00  0.00    +0.000 NA
ATOM     29  N   UNL     1       2.158   1.690   3.446  0.00  0.00    +0.000 N 
ATOM     30  N   UNL     1       2.713   6.361   3.371  0.00  0.00    +0.000 N 
ATOM     31  C   UNL     1       4.486   1.437   0.083  0.00  0.00    +0.000 A 
ATOM     32  C   UNL     1       4.998   2.577  -0.472  0.00  0.00    +0.000 A 
ATOM     33  C   UNL     1       3.480   2.698   1.715  0.00  0.00    +0.000 A 
ATOM     34  C   UNL     1       3.995   3.871   1.158  0.00  0.00    +0.000 A 
ATOM     35  C   UNL     1       2.703   2.855   2.847  0.00  0.00    +0.000 A 
ATOM     36  C   UNL     1       2.971   5.091   2.809  0.00  0.00    +0.000 A 
ATOM     37  H   UNL     1       1.583   1.821   4.269  0.00  0.00    +0.000 HD
ATOM     38  H   UNL     1       1.979   0.886   2.856  0.00  0.00    +0.000 HD
ATOM     39  H   UNL     1       2.140   6.430   4.199  0.00  0.00    +0.000 HD
ATOM     40  H   UNL     1       3.105   7.185   2.937  0.00  0.00    +0.000 HD
ENDBRANCH  24  31
ENDBRANCH  22  24
ENDBRANCH   1  22
TORSDOF 11
ENDMDL
MODEL 6
REMARK VINA RESULT:    -8.290      3.562      6.481
REMARK INTER + INTRA:         -14.480
REMARK INTER:                 -13.994
REMARK INTRA:                  -0.486
REMARK UNBOUND:                -1.343
REMARK  Name = 126941
REMARK  12 active torsions:
REMARK  status: ('A' for Active; 'I' for Inactive)
REMARK    1  A    between atoms: O_1  and  C_23
REMARK    2  A    between atoms: OE1_4  and  CD_28
REMARK    3  A    between atoms: N_6  and  C_16
REMARK    4  A    between atoms: N_6  and  C_18
REMARK    5  A    between atoms: N_6  and  C_27
REMARK    6  A    between atoms: N_7  and  CA_14
REMARK    7  A    between atoms: CA_14  and  CB_15
REMARK    8  A    between atoms: CA_14  and  C_23
REMARK    9  A    between atoms: CB_15  and  CG_17
REMARK   10  A    between atoms: CG_17  and  CD_28
REMARK   11  A    between atoms: C_18  and  C_26
REMARK   12  A    between atoms: C_19  and  C_20
REMARK                            x       y       z     vdW  Elec       q    Type
REMARK                         _______ _______ _______ _____ _____    ______ ____
ROOT
ATOM      1  C   UNL     1       7.391  -1.297   4.134  0.00  0.00    +0.000 A 
ATOM      2  C   UNL     1       6.575   1.262   3.379  0.00  0.00    +0.000 A 
ATOM      3  C   UNL     1       8.249  -0.211   4.312  0.00  0.00    +0.000 A 
ATOM      4  C   UNL     1       6.126  -1.103   3.580  0.00  0.00    +0.000 A 
ATOM      5  C   UNL     1       7.841   1.070   3.934  0.00  0.00    +0.000 A 
ATOM      6  C   UNL     1       5.718   0.176   3.203  0.00  0.00    +0.000 A 
ENDROOT
BRANCH   2   9
ATOM      7  O   UNL     1       6.739   3.600   3.423  0.00  0.00    +0.000 OA
ATOM      8  N   UNL     1       5.077   2.686   2.087  0.00  0.00    +0.000 N 
ATOM      9  C   ACE A   0       6.140   2.625   2.977  0.00  0.00    +0.000 C 
ATOM     10  H   UNL     1       4.685   1.835   1.699  0.00  0.00    +0.000 HD
BRANCH   8  11
ATOM     11  CA  UNL     1       4.557   3.933   1.586  0.00  0.00    +0.000 C 
BRANCH  11  13
ATOM     12  OXT UNL     1       2.752   3.637   3.194  0.00  0.00    +0.000 OA
ATOM     13  C   UNL     1       3.457   4.382   2.525  0.00  0.00    +0.000 C 
BRANCH  13  14
ATOM     14  O   UNL     1       3.357   5.737   2.579  0.00  0.00    +0.000 OA
ATOM     15  H   UNL     1       2.975   6.041   3.429  0.00  0.00    +0.000 HD
ENDBRANCH  13  14
ENDBRANCH  11  13
BRANCH  11  16
ATOM     16  CB  UNL     1       4.121   3.847   0.118  0.00  0.00    +0.000 C 
BRANCH  16  17
ATOM     17  CG  UNL     1       4.001   2.431  -0.460  0.00  0.00    +0.000 C 
BRANCH  17  19
ATOM     18  OE2 UNL     1       6.017   1.572  -1.524  0.00  0.00    +0.000 OA
ATOM     19  CD  UNL     1       4.949   2.159  -1.609  0.00  0.00    +0.000 C 
BRANCH  19  20
ATOM     20  OE1 UNL     1       4.488   2.690  -2.772  0.00  0.00    +0.000 OA
ATOM     21  HE1 UNL     1       3.988   3.520  -2.623  0.00  0.00    +0.000 HD
ENDBRANCH  19  20
ENDBRANCH  17  19
ENDBRANCH  16  17
ENDBRANCH  11  16
ENDBRANCH   8  11
ENDBRANCH   2   9
BRANCH   1  22
ATOM     22  N   UNL     1       7.805  -2.590   4.515  0.00  0.00    +0.000 N 
ATOM     23  C   UNL     1       8.188  -3.563   3.511  0.00  0.00    +0.000 C 
BRANCH  22  24
ATOM     24  C   UNL     1       7.867  -2.959   5.915  0.00  0.00    +0.000 C 
BRANCH  24  31
ATOM     25  N   UNL     1       6.352  -4.802   6.419  0.00  0.00    +0.000 NA
ATOM     26  N   UNL     1       8.359  -6.672   6.053  0.00  0.00    +0.000 NA
ATOM     27  N   UNL     1       6.875  -8.382   6.539  0.00  0.00    +0.000 NA
ATOM     28  N   UNL     1       4.585  -7.912   7.074  0.00  0.00    +0.000 NA
ATOM     29  N   UNL     1       3.828  -5.674   7.106  0.00  0.00    +0.000 N 
ATOM     30  N   UNL     1       5.374 -10.117   7.033  0.00  0.00    +0.000 N 
ATOM     31  C   UNL     1       7.596  -4.428   6.085  0.00  0.00    +0.000 A 
ATOM     32  C   UNL     1       8.588  -5.353   5.903  0.00  0.00    +0.000 A 
ATOM     33  C   UNL     1       6.124  -6.121   6.567  0.00  0.00    +0.000 A 
ATOM     34  C   UNL     1       7.128  -7.076   6.386  0.00  0.00    +0.000 A 
ATOM     35  C   UNL     1       4.878  -6.609   6.911  0.00  0.00    +0.000 A 
ATOM     36  C   UNL     1       5.621  -8.736   6.875  0.00  0.00    +0.000 A 
ATOM     37  H   UNL     1       2.924  -6.046   7.366  0.00  0.00    +0.000 HD
ATOM     38  H   UNL     1       4.070  -4.738   7.406  0.00  0.00    +0.000 HD
ATOM     39  H   UNL     1       4.447 -10.430   7.285  0.00  0.00    +0.000 HD
ATOM     40  H   UNL     1       6.127 -10.775   6.893  0.00  0.00    +0.000 HD
ENDBRANCH  24  31
ENDBRANCH  22  24
ENDBRANCH   1  22
TORSDOF 11
ENDMDL
MODEL 7
REMARK VINA RESULT:    -8.140      4.987      9.164
REMARK INTER + INTRA:         -14.242
REMARK INTER:                 -12.982
REMARK INTRA:                  -1.260
REMARK UNBOUND:                -1.343
REMARK  Name = 126941
REMARK  12 active torsions:
REMARK  status: ('A' for Active; 'I' for Inactive)
REMARK    1  A    between atoms: O_1  and  C_23
REMARK    2  A    between atoms: OE1_4  and  CD_28
REMARK    3  A    between atoms: N_6  and  C_16
REMARK    4  A    between atoms: N_6  and  C_18
REMARK    5  A    between atoms: N_6  and  C_27
REMARK    6  A    between atoms: N_7  and  CA_14
REMARK    7  A    between atoms: CA_14  and  CB_15
REMARK    8  A    between atoms: CA_14  and  C_23
REMARK    9  A    between atoms: CB_15  and  CG_17
REMARK   10  A    between atoms: CG_17  and  CD_28
REMARK   11  A    between atoms: C_18  and  C_26
REMARK   12  A    between atoms: C_19  and  C_20
REMARK                            x       y       z     vdW  Elec       q    Type
REMARK                         _______ _______ _______ _____ _____    ______ ____
ROOT
ATOM      1  C   UNL     1       8.263  -4.875   5.480  0.00  0.00    +0.000 A 
ATOM      2  C   UNL     1       7.766  -2.516   4.076  0.00  0.00    +0.000 A 
ATOM      3  C   UNL     1       8.854  -3.680   5.893  0.00  0.00    +0.000 A 
ATOM      4  C   UNL     1       7.424  -4.889   4.366  0.00  0.00    +0.000 A 
ATOM      5  C   UNL     1       8.605  -2.500   5.191  0.00  0.00    +0.000 A 
ATOM      6  C   UNL     1       7.175  -3.710   3.665  0.00  0.00    +0.000 A 
ENDROOT
BRANCH   2   9
ATOM      7  O   UNL     1       8.331  -0.354   3.365  0.00  0.00    +0.000 OA
ATOM      8  N   UNL     1       6.314  -1.217   2.610  0.00  0.00    +0.000 N 
ATOM      9  C   ACE A   0       7.501  -1.259   3.329  0.00  0.00    +0.000 C 
ATOM     10  H   UNL     1       5.716  -2.035   2.561  0.00  0.00    +0.000 HD
BRANCH   8  11
ATOM     11  CA  UNL     1       5.929  -0.078   1.817  0.00  0.00    +0.000 C 
BRANCH  11  13
ATOM     12  OXT UNL     1       5.414   1.443   3.648  0.00  0.00    +0.000 OA
ATOM     13  C   UNL     1       5.042   0.800   2.675  0.00  0.00    +0.000 C 
BRANCH  13  14
ATOM     14  O   UNL     1       3.763   0.830   2.217  0.00  0.00    +0.000 OA
ATOM     15  H   UNL     1       3.711   1.172   1.299  0.00  0.00    +0.000 HD
ENDBRANCH  13  14
ENDBRANCH  11  13
BRANCH  11  16
ATOM     16  CB  UNL     1       5.297  -0.475   0.477  0.00  0.00    +0.000 C 
BRANCH  16  17
ATOM     17  CG  UNL     1       5.513   0.507  -0.681  0.00  0.00    +0.000 C 
BRANCH  17  19
ATOM     18  OE2 UNL     1       4.145   1.878  -2.159  0.00  0.00    +0.000 OA
ATOM     19  CD  UNL     1       4.227   1.012  -1.301  0.00  0.00    +0.000 C 
BRANCH  19  20
ATOM     20  OE1 UNL     1       3.139   0.410  -0.754  0.00  0.00    +0.000 OA
ATOM     21  HE1 UNL     1       2.742   0.950  -0.038  0.00  0.00    +0.000 HD
ENDBRANCH  19  20
ENDBRANCH  17  19
ENDBRANCH  16  17
ENDBRANCH  11  16
ENDBRANCH   8  11
ENDBRANCH   2   9
BRANCH   1  22
ATOM     22  N   UNL     1       8.515  -6.068   6.189  0.00  0.00    +0.000 N 
ATOM     23  C   UNL     1       9.180  -6.028   7.476  0.00  0.00    +0.000 C 
BRANCH  22  24
ATOM     24  C   UNL     1       8.099  -7.346   5.648  0.00  0.00    +0.000 C 
BRANCH  24  31
ATOM     25  N   UNL     1       5.899  -7.287   6.698  0.00  0.00    +0.000 NA
ATOM     26  N   UNL     1       6.299  -9.755   7.886  0.00  0.00    +0.000 NA
ATOM     27  N   UNL     1       4.200  -9.645   8.857  0.00  0.00    +0.000 NA
ATOM     28  N   UNL     1       2.773  -7.751   8.497  0.00  0.00    +0.000 NA
ATOM     29  N   UNL     1       3.516  -5.971   7.132  0.00  0.00    +0.000 N 
ATOM     30  N   UNL     1       2.073  -9.535   9.843  0.00  0.00    +0.000 N 
ATOM     31  C   UNL     1       7.041  -7.967   6.518  0.00  0.00    +0.000 A 
ATOM     32  C   UNL     1       7.239  -9.188   7.104  0.00  0.00    +0.000 A 
ATOM     33  C   UNL     1       4.961  -7.856   7.478  0.00  0.00    +0.000 A 
ATOM     34  C   UNL     1       5.149  -9.100   8.085  0.00  0.00    +0.000 A 
ATOM     35  C   UNL     1       3.751  -7.238   7.728  0.00  0.00    +0.000 A 
ATOM     36  C   UNL     1       3.062  -8.946   9.025  0.00  0.00    +0.000 A 
ATOM     37  H   UNL     1       2.629  -5.526   7.331  0.00  0.00    +0.000 HD
ATOM     38  H   UNL     1       4.315  -5.384   6.924  0.00  0.00    +0.000 HD
ATOM     39  H   UNL     1       1.202  -9.047   9.999  0.00  0.00    +0.000 HD
ATOM     40  H   UNL     1       2.249 -10.436  10.264  0.00  0.00    +0.000 HD
ENDBRANCH  24  31
ENDBRANCH  22  24
ENDBRANCH   1  22
TORSDOF 11
ENDMDL
MODEL 8
REMARK VINA RESULT:    -8.081      5.632     10.101
REMARK INTER + INTRA:         -14.148
REMARK INTER:                 -12.970
REMARK INTRA:                  -1.178
REMARK UNBOUND:                -1.343
REMARK  Name = 126941
REMARK  12 active torsions:
REMARK  status: ('A' for Active; 'I' for Inactive)
REMARK    1  A    between atoms: O_1  and  C_23
REMARK    2  A    between atoms: OE1_4  and  CD_28
REMARK    3  A    between atoms: N_6  and  C_16
REMARK    4  A    between atoms: N_6  and  C_18
REMARK    5  A    between atoms: N_6  and  C_27
REMARK    6  A    between atoms: N_7  and  CA_14
REMARK    7  A    between atoms: CA_14  and  CB_15
REMARK    8  A    between atoms: CA_14  and  C_23
REMARK    9  A    between atoms: CB_15  and  CG_17
REMARK   10  A    between atoms: CG_17  and  CD_28
REMARK   11  A    between atoms: C_18  and  C_26
REMARK   12  A    between atoms: C_19  and  C_20
REMARK                            x       y       z     vdW  Elec       q    Type
REMARK                         _______ _______ _______ _____ _____    ______ ____
ROOT
ATOM      1  C   UNL     1       7.262   0.702   4.291  0.00  0.00    +0.000 A 
ATOM      2  C   UNL     1       8.071  -1.962   4.469  0.00  0.00    +0.000 A 
ATOM      3  C   UNL     1       6.317  -0.321   4.200  0.00  0.00    +0.000 A 
ATOM      4  C   UNL     1       8.610   0.392   4.471  0.00  0.00    +0.000 A 
ATOM      5  C   UNL     1       6.722  -1.654   4.289  0.00  0.00    +0.000 A 
ATOM      6  C   UNL     1       9.014  -0.939   4.560  0.00  0.00    +0.000 A 
ENDROOT
BRANCH   2   9
ATOM      7  O   UNL     1       9.372  -3.795   3.802  0.00  0.00    +0.000 OA
ATOM      8  N   UNL     1       7.884  -4.140   5.548  0.00  0.00    +0.000 N 
ATOM      9  C   ACE A   0       8.502  -3.381   4.563  0.00  0.00    +0.000 C 
ATOM     10  H   UNL     1       7.232  -3.707   6.194  0.00  0.00    +0.000 HD
BRANCH   8  11
ATOM     11  CA  UNL     1       8.212  -5.524   5.780  0.00  0.00    +0.000 C 
BRANCH  11  13
ATOM     12  OXT UNL     1       6.810  -7.160   4.644  0.00  0.00    +0.000 OA
ATOM     13  C   UNL     1       6.958  -6.338   5.540  0.00  0.00    +0.000 C 
BRANCH  13  14
ATOM     14  O   UNL     1       6.001  -6.082   6.470  0.00  0.00    +0.000 OA
ATOM     15  H   UNL     1       6.250  -5.334   7.054  0.00  0.00    +0.000 HD
ENDBRANCH  13  14
ENDBRANCH  11  13
BRANCH  11  16
ATOM     16  CB  UNL     1       8.850  -5.760   7.154  0.00  0.00    +0.000 C 
BRANCH  16  17
ATOM     17  CG  UNL     1       9.800  -4.662   7.647  0.00  0.00    +0.000 C 
BRANCH  17  19
ATOM     18  OE2 UNL     1       9.363  -3.816   9.890  0.00  0.00    +0.000 OA
ATOM     19  CD  UNL     1       9.186  -3.743   8.683  0.00  0.00    +0.000 C 
BRANCH  19  20
ATOM     20  OE1 UNL     1       8.362  -2.828   8.111  0.00  0.00    +0.000 OA
ATOM     21  HE1 UNL     1       7.924  -2.261   8.781  0.00  0.00    +0.000 HD
ENDBRANCH  19  20
ENDBRANCH  17  19
ENDBRANCH  16  17
ENDBRANCH  11  16
ENDBRANCH   8  11
ENDBRANCH   2   9
BRANCH   1  22
ATOM     22  N   UNL     1       6.852   2.048   4.200  0.00  0.00    +0.000 N 
ATOM     23  C   UNL     1       7.836   3.112   4.152  0.00  0.00    +0.000 C 
BRANCH  22  24
ATOM     24  C   UNL     1       5.444   2.385   4.138  0.00  0.00    +0.000 C 
BRANCH  24  31
ATOM     25  N   UNL     1       5.243   1.785   1.783  0.00  0.00    +0.000 NA
ATOM     26  N   UNL     1       4.130   4.240   1.158  0.00  0.00    +0.000 NA
ATOM     27  N   UNL     1       3.963   3.616  -1.066  0.00  0.00    +0.000 NA
ATOM     28  N   UNL     1       4.702   1.455  -1.798  0.00  0.00    +0.000 NA
ATOM     29  N   UNL     1       5.613  -0.061  -0.231  0.00  0.00    +0.000 N 
ATOM     30  N   UNL     1       3.794   2.986  -3.320  0.00  0.00    +0.000 N 
ATOM     31  C   UNL     1       5.044   2.717   2.727  0.00  0.00    +0.000 A 
ATOM     32  C   UNL     1       4.493   3.931   2.418  0.00  0.00    +0.000 A 
ATOM     33  C   UNL     1       4.879   2.096   0.524  0.00  0.00    +0.000 A 
ATOM     34  C   UNL     1       4.317   3.331   0.194  0.00  0.00    +0.000 A 
ATOM     35  C   UNL     1       5.044   1.207  -0.520  0.00  0.00    +0.000 A 
ATOM     36  C   UNL     1       4.172   2.668  -1.997  0.00  0.00    +0.000 A 
ATOM     37  H   UNL     1       5.735  -0.699  -1.007  0.00  0.00    +0.000 HD
ATOM     38  H   UNL     1       6.243  -0.135   0.559  0.00  0.00    +0.000 HD
ATOM     39  H   UNL     1       3.933   2.305  -4.053  0.00  0.00    +0.000 HD
ATOM     40  H   UNL     1       3.391   3.891  -3.517  0.00  0.00    +0.000 HD
ENDBRANCH  24  31
ENDBRANCH  22  24
ENDBRANCH   1  22
TORSDOF 11
ENDMDL
MODEL 9
REMARK VINA RESULT:    -7.991      6.097     10.983
REMARK INTER + INTRA:         -14.005
REMARK INTER:                 -13.101
REMARK INTRA:                  -0.904
REMARK UNBOUND:                -1.343
REMARK  Name = 126941
REMARK  12 active torsions:
REMARK  status: ('A' for Active; 'I' for Inactive)
REMARK    1  A    between atoms: O_1  and  C_23
REMARK    2  A    between atoms: OE1_4  and  CD_28
REMARK    3  A    between atoms: N_6  and  C_16
REMARK    4  A    between atoms: N_6  and  C_18
REMARK    5  A    between atoms: N_6  and  C_27
REMARK    6  A    between atoms: N_7  and  CA_14
REMARK    7  A    between atoms: CA_14  and  CB_15
REMARK    8  A    between atoms: CA_14  and  C_23
REMARK    9  A    between atoms: CB_15  and  CG_17
REMARK   10  A    between atoms: CG_17  and  CD_28
REMARK   11  A    between atoms: C_18  and  C_26
REMARK   12  A    between atoms: C_19  and  C_20
REMARK                            x       y       z     vdW  Elec       q    Type
REMARK                         _______ _______ _______ _____ _____    ______ ____
ROOT
ATOM      1  C   UNL     1       7.303   0.212   4.329  0.00  0.00    +0.000 A 
ATOM      2  C   UNL     1       8.170  -2.411   4.715  0.00  0.00    +0.000 A 
ATOM      3  C   UNL     1       6.413  -0.849   4.158  0.00  0.00    +0.000 A 
ATOM      4  C   UNL     1       8.626  -0.039   4.694  0.00  0.00    +0.000 A 
ATOM      5  C   UNL     1       6.847  -2.161   4.351  0.00  0.00    +0.000 A 
ATOM      6  C   UNL     1       9.059  -1.350   4.887  0.00  0.00    +0.000 A 
ENDROOT
BRANCH   2   9
ATOM      7  O   UNL     1       9.746  -4.137   4.521  0.00  0.00    +0.000 OA
ATOM      8  N   UNL     1       7.751  -4.648   5.589  0.00  0.00    +0.000 N 
ATOM      9  C   ACE A   0       8.632  -3.809   4.921  0.00  0.00    +0.000 C 
ATOM     10  H   UNL     1       6.881  -4.284   5.963  0.00  0.00    +0.000 HD
BRANCH   8  11
ATOM     11  CA  UNL     1       8.065  -6.023   5.885  0.00  0.00    +0.000 C 
BRANCH  11  13
ATOM     12  OXT UNL     1       5.794  -6.583   6.563  0.00  0.00    +0.000 OA
ATOM     13  C   UNL     1       6.769  -6.806   5.856  0.00  0.00    +0.000 C 
BRANCH  13  14
ATOM     14  O   UNL     1       6.787  -7.784   4.913  0.00  0.00    +0.000 OA
ATOM     15  H   UNL     1       6.847  -8.677   5.315  0.00  0.00    +0.000 HD
ENDBRANCH  13  14
ENDBRANCH  11  13
BRANCH  11  16
ATOM     16  CB  UNL     1       8.856  -6.183   7.189  0.00  0.00    +0.000 C 
BRANCH  16  17
ATOM     17  CG  UNL     1       9.952  -7.255   7.179  0.00  0.00    +0.000 C 
BRANCH  17  19
ATOM     18  OE2 UNL     1       9.717  -9.070   5.571  0.00  0.00    +0.000 OA
ATOM     19  CD  UNL     1       9.482  -8.604   6.676  0.00  0.00    +0.000 C 
BRANCH  19  20
ATOM     20  OE1 UNL     1       8.714  -9.240   7.598  0.00  0.00    +0.000 OA
ATOM     21  HE1 UNL     1       8.351  -8.618   8.264  0.00  0.00    +0.000 HD
ENDBRANCH  19  20
ENDBRANCH  17  19
ENDBRANCH  16  17
ENDBRANCH  11  16
ENDBRANCH   8  11
ENDBRANCH   2   9
BRANCH   1  22
ATOM     22  N   UNL     1       6.864   1.538   4.133  0.00  0.00    +0.000 N 
ATOM     23  C   UNL     1       7.823   2.619   4.023  0.00  0.00    +0.000 C 
BRANCH  22  24
ATOM     24  C   UNL     1       5.449   1.834   4.024  0.00  0.00    +0.000 C 
BRANCH  24  31
ATOM     25  N   UNL     1       4.883   1.318   1.708  0.00  0.00    +0.000 NA
ATOM     26  N   UNL     1       4.729   4.002   1.051  0.00  0.00    +0.000 NA
ATOM     27  N   UNL     1       4.194   3.452  -1.133  0.00  0.00    +0.000 NA
ATOM     28  N   UNL     1       4.021   1.161  -1.820  0.00  0.00    +0.000 NA
ATOM     29  N   UNL     1       4.400  -0.562  -0.249  0.00  0.00    +0.000 N 
ATOM     30  N   UNL     1       3.652   2.897  -3.348  0.00  0.00    +0.000 N 
ATOM     31  C   UNL     1       5.110   2.271   2.625  0.00  0.00    +0.000 A 
ATOM     32  C   UNL     1       5.033   3.598   2.300  0.00  0.00    +0.000 A 
ATOM     33  C   UNL     1       4.579   1.724   0.461  0.00  0.00    +0.000 A 
ATOM     34  C   UNL     1       4.499   3.074   0.115  0.00  0.00    +0.000 A 
ATOM     35  C   UNL     1       4.329   0.822  -0.555  0.00  0.00    +0.000 A 
ATOM     36  C   UNL     1       3.971   2.480  -2.037  0.00  0.00    +0.000 A 
ATOM     37  H   UNL     1       4.224  -1.211  -1.005  0.00  0.00    +0.000 HD
ATOM     38  H   UNL     1       5.008  -0.855   0.506  0.00  0.00    +0.000 HD
ATOM     39  H   UNL     1       3.477   2.203  -4.061  0.00  0.00    +0.000 HD
ATOM     40  H   UNL     1       3.605   3.884  -3.558  0.00  0.00    +0.000 HD
ENDBRANCH  24  31
ENDBRANCH  22  24
ENDBRANCH   1  22
TORSDOF 11
ENDMDL
