MODEL 1
REMARK VINA RESULT:    -4.808      0.000      0.000
REMARK INTER + INTRA:          -4.808
REMARK INTER:                  -4.808
REMARK INTRA:                   0.000
REMARK UNBOUND:                 0.000
REMARK  Name = 
REMARK  0 active torsions:
REMARK  status: ('A' for Active; 'I' for Inactive)
REMARK                            x       y       z     vdW  Elec       q    Type
REMARK                         _______ _______ _______ _____ _____    ______ ____
ROOT
ATOM      1  N   UNL     1       3.239   0.390  -0.777  0.00  0.00    -0.327 N 
ATOM      2  C   UNL     1       4.586   0.116  -0.657  0.00  0.00    +0.217 A 
ATOM      3  N   UNL     1       5.416   0.807  -1.423  0.00  0.00    -0.203 NA
ATOM      4  C   UNL     1       6.695   0.486  -1.264  0.00  0.00    +0.123 A 
ATOM      5  N   UNL     1       7.173  -0.447  -0.448  0.00  0.00    -0.203 NA
ATOM      6  C   UNL     1       6.246  -1.069   0.264  0.00  0.00    +0.217 A 
ATOM      7  N   UNL     1       6.670  -2.059   1.127  0.00  0.00    -0.327 N 
ATOM      8  N   UNL     1       4.942  -0.847   0.182  0.00  0.00    -0.181 NA
ATOM      9  H   UNL     1       2.934   1.097  -1.390  0.00  0.00    +0.000 HD
ATOM     10  H   UNL     1       2.583  -0.122  -0.251  0.00  0.00    +0.000 HD
ATOM     11  H   UNL     1       7.632  -2.255   1.216  0.00  0.00    +0.000 HD
ATOM     12  H   UNL     1       6.014  -2.570   1.652  0.00  0.00    +0.000 HD
ENDROOT
TORSDOF 0
ENDMDL
MODEL 2
REMARK VINA RESULT:    -4.727      1.785      3.156
REMARK INTER + INTRA:          -4.727
REMARK INTER:                  -4.727
REMARK INTRA:                   0.000
REMARK UNBOUND:                 0.000
REMARK  Name = 
REMARK  0 active torsions:
REMARK  status: ('A' for Active; 'I' for Inactive)
REMARK                            x       y       z     vdW  Elec       q    Type
REMARK                         _______ _______ _______ _____ _____    ______ ____
ROOT
ATOM      1  N   UNL     1       2.628   0.748  -0.724  0.00  0.00    -0.327 N 
ATOM      2  C   UNL     1       3.963   1.001  -0.968  0.00  0.00    +0.217 A 
ATOM      3  N   UNL     1       4.812   0.001  -0.792  0.00  0.00    -0.203 NA
ATOM      4  C   UNL     1       6.079   0.316  -1.035  0.00  0.00    +0.123 A 
ATOM      5  N   UNL     1       6.533   1.509  -1.402  0.00  0.00    -0.203 NA
ATOM      6  C   UNL     1       5.589   2.427  -1.544  0.00  0.00    +0.217 A 
ATOM      7  N   UNL     1       5.990   3.694  -1.914  0.00  0.00    -0.327 N 
ATOM      8  N   UNL     1       4.298   2.236  -1.317  0.00  0.00    -0.181 NA
ATOM      9  H   UNL     1       2.339  -0.156  -0.462  0.00  0.00    +0.000 HD
ATOM     10  H   UNL     1       1.966   1.471  -0.810  0.00  0.00    +0.000 HD
ATOM     11  H   UNL     1       6.942   3.877  -2.092  0.00  0.00    +0.000 HD
ATOM     12  H   UNL     1       5.326   4.416  -2.001  0.00  0.00    +0.000 HD
ENDROOT
TORSDOF 0
ENDMDL
MODEL 3
REMARK VINA RESULT:    -4.722      1.440      1.926
REMARK INTER + INTRA:          -4.722
REMARK INTER:                  -4.722
REMARK INTRA:                   0.000
REMARK UNBOUND:                 0.000
REMARK  Name = 
REMARK  0 active torsions:
REMARK  status: ('A' for Active; 'I' for Inactive)
REMARK                            x       y       z     vdW  Elec       q    Type
REMARK                         _______ _______ _______ _____ _____    ______ ____
ROOT
ATOM      1  N   UNL     1       2.644   0.725  -0.736  0.00  0.00    -0.327 N 
ATOM      2  C   UNL     1       3.965   1.040  -0.978  0.00  0.00    +0.217 A 
ATOM      3  N   UNL     1       4.235   2.281  -1.351  0.00  0.00    -0.203 NA
ATOM      4  C   UNL     1       5.523   2.512  -1.577  0.00  0.00    +0.123 A 
ATOM      5  N   UNL     1       6.506   1.625  -1.480  0.00  0.00    -0.203 NA
ATOM      6  C   UNL     1       6.112   0.419  -1.100  0.00  0.00    +0.217 A 
ATOM      7  N   UNL     1       7.081  -0.557  -0.988  0.00  0.00    -0.327 N 
ATOM      8  N   UNL     1       4.857   0.066  -0.861  0.00  0.00    -0.181 NA
ATOM      9  H   UNL     1       1.951   1.420  -0.813  0.00  0.00    +0.000 HD
ATOM     10  H   UNL     1       2.394  -0.194  -0.488  0.00  0.00    +0.000 HD
ATOM     11  H   UNL     1       8.025  -0.335  -1.157  0.00  0.00    +0.000 HD
ATOM     12  H   UNL     1       6.829  -1.475  -0.740  0.00  0.00    +0.000 HD
ENDROOT
TORSDOF 0
ENDMDL
MODEL 4
REMARK VINA RESULT:    -4.692      1.525      3.280
REMARK INTER + INTRA:          -4.692
REMARK INTER:                  -4.692
REMARK INTRA:                   0.000
REMARK UNBOUND:                 0.000
REMARK  Name = 
REMARK  0 active torsions:
REMARK  status: ('A' for Active; 'I' for Inactive)
REMARK                            x       y       z     vdW  Elec       q    Type
REMARK                         _______ _______ _______ _____ _____    ______ ____
ROOT
ATOM      1  N   UNL     1       7.141  -0.361  -1.078  0.00  0.00    -0.327 N 
ATOM      2  C   UNL     1       6.122   0.561  -1.199  0.00  0.00    +0.217 A 
ATOM      3  N   UNL     1       6.457   1.794  -1.545  0.00  0.00    -0.203 NA
ATOM      4  C   UNL     1       5.431   2.632  -1.633  0.00  0.00    +0.123 A 
ATOM      5  N   UNL     1       4.159   2.338  -1.390  0.00  0.00    -0.203 NA
ATOM      6  C   UNL     1       3.949   1.075  -1.052  0.00  0.00    +0.217 A 
ATOM      7  N   UNL     1       2.650   0.702  -0.775  0.00  0.00    -0.327 N 
ATOM      8  N   UNL     1       4.892   0.154  -0.917  0.00  0.00    -0.181 NA
ATOM      9  H   UNL     1       8.069  -0.098  -1.277  0.00  0.00    +0.000 HD
ATOM     10  H   UNL     1       6.941  -1.281  -0.791  0.00  0.00    +0.000 HD
ATOM     11  H   UNL     1       1.920   1.357  -0.863  0.00  0.00    +0.000 HD
ATOM     12  H   UNL     1       2.452  -0.219  -0.488  0.00  0.00    +0.000 HD
ENDROOT
TORSDOF 0
ENDMDL
MODEL 5
REMARK VINA RESULT:    -4.662      1.089      2.530
REMARK INTER + INTRA:          -4.662
REMARK INTER:                  -4.662
REMARK INTRA:                   0.000
REMARK UNBOUND:                 0.000
REMARK  Name = 
REMARK  0 active torsions:
REMARK  status: ('A' for Active; 'I' for Inactive)
REMARK                            x       y       z     vdW  Elec       q    Type
REMARK                         _______ _______ _______ _____ _____    ______ ____
ROOT
ATOM      1  N   UNL     1       8.256  -0.226  -1.175  0.00  0.00    -0.327 N 
ATOM      2  C   UNL     1       6.911  -0.166  -0.870  0.00  0.00    +0.217 A 
ATOM      3  N   UNL     1       6.192   0.764  -1.478  0.00  0.00    -0.203 NA
ATOM      4  C   UNL     1       4.910   0.772  -1.132  0.00  0.00    +0.123 A 
ATOM      5  N   UNL     1       4.333  -0.033  -0.247  0.00  0.00    -0.203 NA
ATOM      6  C   UNL     1       5.154  -0.920   0.294  0.00  0.00    +0.217 A 
ATOM      7  N   UNL     1       4.625  -1.783   1.231  0.00  0.00    -0.327 N 
ATOM      8  N   UNL     1       6.451  -1.014   0.040  0.00  0.00    -0.181 NA
ATOM      9  H   UNL     1       8.636   0.387  -1.844  0.00  0.00    +0.000 HD
ATOM     10  H   UNL     1       8.834  -0.881  -0.722  0.00  0.00    +0.000 HD
ATOM     11  H   UNL     1       3.665  -1.745   1.449  0.00  0.00    +0.000 HD
ATOM     12  H   UNL     1       5.205  -2.437   1.683  0.00  0.00    +0.000 HD
ENDROOT
TORSDOF 0
ENDMDL
MODEL 6
REMARK VINA RESULT:    -4.617      1.107      2.180
REMARK INTER + INTRA:          -4.617
REMARK INTER:                  -4.617
REMARK INTRA:                   0.000
REMARK UNBOUND:                 0.000
REMARK  Name = 
REMARK  0 active torsions:
REMARK  status: ('A' for Active; 'I' for Inactive)
REMARK                            x       y       z     vdW  Elec       q    Type
REMARK                         _______ _______ _______ _____ _____    ______ ____
ROOT
ATOM      1  N   UNL     1       4.517  -1.574   1.433  0.00  0.00    -0.327 N 
ATOM      2  C   UNL     1       5.051  -0.795   0.426  0.00  0.00    +0.217 A 
ATOM      3  N   UNL     1       4.228   0.024  -0.208  0.00  0.00    -0.203 NA
ATOM      4  C   UNL     1       4.804   0.736  -1.170  0.00  0.00    +0.123 A 
ATOM      5  N   UNL     1       6.080   0.670  -1.535  0.00  0.00    -0.203 NA
ATOM      6  C   UNL     1       6.802  -0.185  -0.827  0.00  0.00    +0.217 A 
ATOM      7  N   UNL     1       8.135  -0.312  -1.158  0.00  0.00    -0.327 N 
ATOM      8  N   UNL     1       6.336  -0.958   0.143  0.00  0.00    -0.181 NA
ATOM      9  H   UNL     1       3.567  -1.484   1.673  0.00  0.00    +0.000 HD
ATOM     10  H   UNL     1       5.086  -2.221   1.909  0.00  0.00    +0.000 HD
ATOM     11  H   UNL     1       8.520   0.245  -1.874  0.00  0.00    +0.000 HD
ATOM     12  H   UNL     1       8.703  -0.959  -0.680  0.00  0.00    +0.000 HD
ENDROOT
TORSDOF 0
ENDMDL
MODEL 7
REMARK VINA RESULT:    -4.605      2.254      3.430
REMARK INTER + INTRA:          -4.605
REMARK INTER:                  -4.605
REMARK INTRA:                   0.000
REMARK UNBOUND:                 0.000
REMARK  Name = 
REMARK  0 active torsions:
REMARK  status: ('A' for Active; 'I' for Inactive)
REMARK                            x       y       z     vdW  Elec       q    Type
REMARK                         _______ _______ _______ _____ _____    ______ ____
ROOT
ATOM      1  N   UNL     1       4.698   4.689  -1.664  0.00  0.00    -0.327 N 
ATOM      2  C   UNL     1       4.931   3.344  -1.463  0.00  0.00    +0.217 A 
ATOM      3  N   UNL     1       6.189   2.934  -1.496  0.00  0.00    -0.203 NA
ATOM      4  C   UNL     1       6.340   1.629  -1.305  0.00  0.00    +0.123 A 
ATOM      5  N   UNL     1       5.365   0.748  -1.114  0.00  0.00    -0.203 NA
ATOM      6  C   UNL     1       4.151   1.277  -1.102  0.00  0.00    +0.217 A 
ATOM      7  N   UNL     1       3.088   0.417  -0.918  0.00  0.00    -0.327 N 
ATOM      8  N   UNL     1       3.876   2.559  -1.295  0.00  0.00    -0.181 NA
ATOM      9  H   UNL     1       5.455   5.305  -1.793  0.00  0.00    +0.000 HD
ATOM     10  H   UNL     1       3.776   5.032  -1.680  0.00  0.00    +0.000 HD
ATOM     11  H   UNL     1       3.251  -0.543  -0.771  0.00  0.00    +0.000 HD
ATOM     12  H   UNL     1       2.166   0.763  -0.934  0.00  0.00    +0.000 HD
ENDROOT
TORSDOF 0
ENDMDL
MODEL 8
REMARK VINA RESULT:    -4.530      1.740      2.846
REMARK INTER + INTRA:          -4.530
REMARK INTER:                  -4.530
REMARK INTRA:                   0.000
REMARK UNBOUND:                 0.000
REMARK  Name = 
REMARK  0 active torsions:
REMARK  status: ('A' for Active; 'I' for Inactive)
REMARK                            x       y       z     vdW  Elec       q    Type
REMARK                         _______ _______ _______ _____ _____    ______ ____
ROOT
ATOM      1  N   UNL     1       5.413   3.745  -1.894  0.00  0.00    -0.327 N 
ATOM      2  C   UNL     1       5.145   2.444  -1.520  0.00  0.00    +0.217 A 
ATOM      3  N   UNL     1       3.890   2.143  -1.227  0.00  0.00    -0.203 NA
ATOM      4  C   UNL     1       3.705   0.879  -0.867  0.00  0.00    +0.123 A 
ATOM      5  N   UNL     1       4.646  -0.052  -0.765  0.00  0.00    -0.203 NA
ATOM      6  C   UNL     1       5.861   0.369  -1.083  0.00  0.00    +0.217 A 
ATOM      7  N   UNL     1       6.891  -0.544  -0.990  0.00  0.00    -0.327 N 
ATOM      8  N   UNL     1       6.170   1.607  -1.442  0.00  0.00    -0.181 NA
ATOM      9  H   UNL     1       4.679   4.398  -1.963  0.00  0.00    +0.000 HD
ATOM     10  H   UNL     1       6.337   4.021  -2.089  0.00  0.00    +0.000 HD
ATOM     11  H   UNL     1       6.703  -1.474  -0.727  0.00  0.00    +0.000 HD
ATOM     12  H   UNL     1       7.815  -0.266  -1.186  0.00  0.00    +0.000 HD
ENDROOT
TORSDOF 0
ENDMDL
MODEL 9
REMARK VINA RESULT:    -4.518      1.743      3.853
REMARK INTER + INTRA:          -4.518
REMARK INTER:                  -4.518
REMARK INTRA:                   0.000
REMARK UNBOUND:                 0.000
REMARK  Name = 
REMARK  0 active torsions:
REMARK  status: ('A' for Active; 'I' for Inactive)
REMARK                            x       y       z     vdW  Elec       q    Type
REMARK                         _______ _______ _______ _____ _____    ______ ____
ROOT
ATOM      1  N   UNL     1       6.980  -0.435  -1.069  0.00  0.00    -0.327 N 
ATOM      2  C   UNL     1       5.906   0.431  -1.110  0.00  0.00    +0.217 A 
ATOM      3  N   UNL     1       4.720  -0.058  -0.785  0.00  0.00    -0.203 NA
ATOM      4  C   UNL     1       3.731   0.826  -0.856  0.00  0.00    +0.123 A 
ATOM      5  N   UNL     1       3.841   2.095  -1.230  0.00  0.00    -0.203 NA
ATOM      6  C   UNL     1       5.076   2.466  -1.531  0.00  0.00    +0.217 A 
ATOM      7  N   UNL     1       5.263   3.771  -1.938  0.00  0.00    -0.327 N 
ATOM      8  N   UNL     1       6.138   1.673  -1.512  0.00  0.00    -0.181 NA
ATOM      9  H   UNL     1       6.850  -1.366  -0.776  0.00  0.00    +0.000 HD
ATOM     10  H   UNL     1       7.875  -0.123  -1.334  0.00  0.00    +0.000 HD
ATOM     11  H   UNL     1       4.500   4.392  -1.966  0.00  0.00    +0.000 HD
ATOM     12  H   UNL     1       6.159   4.081  -2.202  0.00  0.00    +0.000 HD
ENDROOT
TORSDOF 0
ENDMDL
