MODEL 1
REMARK VINA RESULT:    -7.438      0.000      0.000
REMARK INTER + INTRA:          -8.073
REMARK INTER:                  -7.872
REMARK INTRA:                  -0.201
REMARK UNBOUND:                -0.201
REMARK  Name = 
REMARK  3 active torsions:
REMARK  status: ('A' for Active; 'I' for Inactive)
REMARK    1  A    between atoms: C_1  and  C_2
REMARK    2  A    between atoms: N_9  and  C_10
REMARK    3  A    between atoms: N_9  and  C_17
REMARK                            x       y       z     vdW  Elec       q    Type
REMARK                         _______ _______ _______ _____ _____    ______ ____
ROOT
ATOM      1  C   UNL     1       4.490   4.483  -1.115  0.00  0.00    -0.004 C 
ATOM      2  C   UNL     1       4.517   3.421  -0.062  0.00  0.00    +0.133 A 
ATOM      3  N   UNL     1       5.200   2.304  -0.327  0.00  0.00    -0.199 NA
ATOM      4  C   UNL     1       5.199   1.338   0.601  0.00  0.00    +0.226 A 
ATOM      5  N   UNL     1       4.545   1.475   1.750  0.00  0.00    -0.184 NA
ATOM      6  C   UNL     1       3.900   2.621   1.899  0.00  0.00    +0.227 A 
ATOM      7  N   UNL     1       3.829   3.634   1.048  0.00  0.00    -0.203 NA
ATOM      8 CL   UNL     1       3.041   2.812   3.363  0.00  0.00    -0.041 Cl
ATOM      9  N   UNL     1       5.929   0.151   0.357  0.00  0.00    -0.273 N 
ATOM     10  C   UNL     1       6.812   0.220  -0.805  0.00  0.00    +0.008 C 
ENDROOT
BRANCH   9  11
ATOM     11  C   UNL     1       6.110  -0.924   1.255  0.00  0.00    +0.036 A 
ATOM     12  C   UNL     1       7.096  -0.871   2.256  0.00  0.00    -0.039 A 
ATOM     13  C   UNL     1       7.288  -1.923   3.158  0.00  0.00    -0.042 A 
ATOM     14  C   UNL     1       6.491  -3.058   3.073  0.00  0.00    +0.041 A 
ATOM     15  C   UNL     1       5.505  -3.145   2.096  0.00  0.00    -0.042 A 
ATOM     16  C   UNL     1       5.319  -2.087   1.197  0.00  0.00    -0.039 A 
ATOM     17 CL   UNL     1       6.720  -4.355   4.177  0.00  0.00    -0.084 Cl
ENDBRANCH   9  11
TORSDOF 1
ENDMDL
MODEL 2
REMARK VINA RESULT:    -7.368      3.419      6.092
REMARK INTER + INTRA:          -7.999
REMARK INTER:                  -7.845
REMARK INTRA:                  -0.154
REMARK UNBOUND:                -0.201
REMARK  Name = 
REMARK  3 active torsions:
REMARK  status: ('A' for Active; 'I' for Inactive)
REMARK    1  A    between atoms: C_1  and  C_2
REMARK    2  A    between atoms: N_9  and  C_10
REMARK    3  A    between atoms: N_9  and  C_17
REMARK                            x       y       z     vdW  Elec       q    Type
REMARK                         _______ _______ _______ _____ _____    ______ ____
ROOT
ATOM      1  C   UNL     1       6.375  -1.124  -0.379  0.00  0.00    -0.004 C 
ATOM      2  C   UNL     1       5.840   0.240  -0.077  0.00  0.00    +0.133 A 
ATOM      3  N   UNL     1       5.722   0.589   1.206  0.00  0.00    -0.199 NA
ATOM      4  C   UNL     1       5.214   1.798   1.480  0.00  0.00    +0.226 A 
ATOM      5  N   UNL     1       4.837   2.630   0.516  0.00  0.00    -0.184 NA
ATOM      6  C   UNL     1       4.995   2.174  -0.718  0.00  0.00    +0.227 A 
ATOM      7  N   UNL     1       5.477   1.001  -1.098  0.00  0.00    -0.203 NA
ATOM      8 CL   UNL     1       4.503   3.224  -1.973  0.00  0.00    -0.041 Cl
ATOM      9  N   UNL     1       5.095   2.203   2.830  0.00  0.00    -0.273 N 
ATOM     10  C   UNL     1       5.777   1.327   3.780  0.00  0.00    +0.008 C 
ENDROOT
BRANCH   9  11
ATOM     11  C   UNL     1       4.667   3.466   3.294  0.00  0.00    +0.036 A 
ATOM     12  C   UNL     1       5.593   4.413   3.766  0.00  0.00    -0.039 A 
ATOM     13  C   UNL     1       5.191   5.672   4.226  0.00  0.00    -0.042 A 
ATOM     14  C   UNL     1       3.843   6.009   4.222  0.00  0.00    +0.041 A 
ATOM     15  C   UNL     1       2.899   5.097   3.762  0.00  0.00    -0.042 A 
ATOM     16  C   UNL     1       3.310   3.840   3.303  0.00  0.00    -0.039 A 
ATOM     17 CL   UNL     1       3.340   7.553   4.785  0.00  0.00    -0.084 Cl
ENDBRANCH   9  11
TORSDOF 1
ENDMDL
MODEL 3
REMARK VINA RESULT:    -7.138      2.605      6.053
REMARK INTER + INTRA:          -7.755
REMARK INTER:                  -7.578
REMARK INTRA:                  -0.178
REMARK UNBOUND:                -0.201
REMARK  Name = 
REMARK  3 active torsions:
REMARK  status: ('A' for Active; 'I' for Inactive)
REMARK    1  A    between atoms: C_1  and  C_2
REMARK    2  A    between atoms: N_9  and  C_10
REMARK    3  A    between atoms: N_9  and  C_17
REMARK                            x       y       z     vdW  Elec       q    Type
REMARK                         _______ _______ _______ _____ _____    ______ ____
ROOT
ATOM      1  C   UNL     1       7.859  -3.991   3.571  0.00  0.00    -0.004 C 
ATOM      2  C   UNL     1       7.628  -2.549   3.242  0.00  0.00    +0.133 A 
ATOM      3  N   UNL     1       6.906  -2.271   2.153  0.00  0.00    -0.199 NA
ATOM      4  C   UNL     1       6.724  -0.981   1.839  0.00  0.00    +0.226 A 
ATOM      5  N   UNL     1       7.238  -0.004   2.578  0.00  0.00    -0.184 NA
ATOM      6  C   UNL     1       7.939  -0.400   3.629  0.00  0.00    +0.227 A 
ATOM      7  N   UNL     1       8.186  -1.640   4.025  0.00  0.00    -0.203 NA
ATOM      8 CL   UNL     1       8.621   0.841   4.585  0.00  0.00    -0.041 Cl
ATOM      9  N   UNL     1       5.948  -0.655   0.703  0.00  0.00    -0.273 N 
ATOM     10  C   UNL     1       5.223  -1.787   0.128  0.00  0.00    +0.008 C 
ENDROOT
BRANCH   9  11
ATOM     11  C   UNL     1       5.582   0.641   0.278  0.00  0.00    +0.036 A 
ATOM     12  C   UNL     1       6.235   1.257  -0.805  0.00  0.00    -0.039 A 
ATOM     13  C   UNL     1       5.885   2.538  -1.244  0.00  0.00    -0.042 A 
ATOM     14  C   UNL     1       4.869   3.234  -0.602  0.00  0.00    +0.041 A 
ATOM     15  C   UNL     1       4.201   2.656   0.472  0.00  0.00    -0.042 A 
ATOM     16  C   UNL     1       4.557   1.372   0.905  0.00  0.00    -0.039 A 
ATOM     17 CL   UNL     1       4.432   4.808  -1.136  0.00  0.00    -0.084 Cl
ENDBRANCH   9  11
TORSDOF 1
ENDMDL
MODEL 4
REMARK VINA RESULT:    -7.086      3.152      6.052
REMARK INTER + INTRA:          -7.701
REMARK INTER:                  -7.501
REMARK INTRA:                  -0.201
REMARK UNBOUND:                -0.201
REMARK  Name = 
REMARK  3 active torsions:
REMARK  status: ('A' for Active; 'I' for Inactive)
REMARK    1  A    between atoms: C_1  and  C_2
REMARK    2  A    between atoms: N_9  and  C_10
REMARK    3  A    between atoms: N_9  and  C_17
REMARK                            x       y       z     vdW  Elec       q    Type
REMARK                         _______ _______ _______ _____ _____    ______ ____
ROOT
ATOM      1  C   UNL     1       7.707  -3.387   6.073  0.00  0.00    -0.004 C 
ATOM      2  C   UNL     1       7.614  -2.222   5.138  0.00  0.00    +0.133 A 
ATOM      3  N   UNL     1       6.911  -2.384   4.014  0.00  0.00    -0.199 NA
ATOM      4  C   UNL     1       6.853  -1.353   3.161  0.00  0.00    +0.226 A 
ATOM      5  N   UNL     1       7.469  -0.203   3.414  0.00  0.00    -0.184 NA
ATOM      6  C   UNL     1       8.140  -0.160   4.554  0.00  0.00    +0.227 A 
ATOM      7  N   UNL     1       8.268  -1.117   5.461  0.00  0.00    -0.203 NA
ATOM      8 CL   UNL     1       8.951   1.305   4.892  0.00  0.00    -0.041 Cl
ATOM      9  N   UNL     1       6.100  -1.488   1.971  0.00  0.00    -0.273 N 
ATOM     10  C   UNL     1       5.261  -2.684   1.927  0.00  0.00    +0.008 C 
ENDROOT
BRANCH   9  11
ATOM     11  C   UNL     1       5.859  -0.482   1.010  0.00  0.00    +0.036 A 
ATOM     12  C   UNL     1       4.840   0.468   1.200  0.00  0.00    -0.039 A 
ATOM     13  C   UNL     1       4.588   1.475   0.262  0.00  0.00    -0.042 A 
ATOM     14  C   UNL     1       5.357   1.550  -0.893  0.00  0.00    +0.041 A 
ATOM     15  C   UNL     1       6.373   0.628  -1.113  0.00  0.00    -0.042 A 
ATOM     16  C   UNL     1       6.620  -0.377  -0.169  0.00  0.00    -0.039 A 
ATOM     17 CL   UNL     1       5.054   2.785  -2.050  0.00  0.00    -0.084 Cl
ENDBRANCH   9  11
TORSDOF 1
ENDMDL
MODEL 5
REMARK VINA RESULT:    -6.785      2.912      3.814
REMARK INTER + INTRA:          -7.382
REMARK INTER:                  -7.284
REMARK INTRA:                  -0.098
REMARK UNBOUND:                -0.201
REMARK  Name = 
REMARK  3 active torsions:
REMARK  status: ('A' for Active; 'I' for Inactive)
REMARK    1  A    between atoms: C_1  and  C_2
REMARK    2  A    between atoms: N_9  and  C_10
REMARK    3  A    between atoms: N_9  and  C_17
REMARK                            x       y       z     vdW  Elec       q    Type
REMARK                         _______ _______ _______ _____ _____    ______ ____
ROOT
ATOM      1  C   UNL     1       4.292   2.695   1.884  0.00  0.00    -0.004 C 
ATOM      2  C   UNL     1       5.351   2.010   2.689  0.00  0.00    +0.133 A 
ATOM      3  N   UNL     1       5.305   0.678   2.767  0.00  0.00    -0.199 NA
ATOM      4  C   UNL     1       6.234   0.064   3.513  0.00  0.00    +0.226 A 
ATOM      5  N   UNL     1       7.174   0.747   4.157  0.00  0.00    -0.184 NA
ATOM      6  C   UNL     1       7.116   2.062   4.011  0.00  0.00    +0.227 A 
ATOM      7  N   UNL     1       6.243   2.767   3.308  0.00  0.00    -0.203 NA
ATOM      8 CL   UNL     1       8.308   2.961   4.842  0.00  0.00    -0.041 Cl
ATOM      9  N   UNL     1       6.222  -1.347   3.600  0.00  0.00    -0.273 N 
ATOM     10  C   UNL     1       5.319  -1.997   2.651  0.00  0.00    +0.008 C 
ENDROOT
BRANCH   9  11
ATOM     11  C   UNL     1       7.170  -2.157   4.263  0.00  0.00    +0.036 A 
ATOM     12  C   UNL     1       7.227  -2.198   5.667  0.00  0.00    -0.039 A 
ATOM     13  C   UNL     1       8.156  -2.997   6.344  0.00  0.00    -0.042 A 
ATOM     14  C   UNL     1       9.051  -3.775   5.621  0.00  0.00    +0.041 A 
ATOM     15  C   UNL     1       9.023  -3.760   4.231  0.00  0.00    -0.042 A 
ATOM     16  C   UNL     1       8.090  -2.958   3.562  0.00  0.00    -0.039 A 
ATOM     17 CL   UNL     1      10.195  -4.759   6.445  0.00  0.00    -0.084 Cl
ENDBRANCH   9  11
TORSDOF 1
ENDMDL
MODEL 6
REMARK VINA RESULT:    -6.626      5.638      9.033
REMARK INTER + INTRA:          -7.214
REMARK INTER:                  -7.087
REMARK INTRA:                  -0.127
REMARK UNBOUND:                -0.201
REMARK  Name = 
REMARK  3 active torsions:
REMARK  status: ('A' for Active; 'I' for Inactive)
REMARK    1  A    between atoms: C_1  and  C_2
REMARK    2  A    between atoms: N_9  and  C_10
REMARK    3  A    between atoms: N_9  and  C_17
REMARK                            x       y       z     vdW  Elec       q    Type
REMARK                         _______ _______ _______ _____ _____    ______ ____
ROOT
ATOM      1  C   UNL     1      10.800  -7.660   7.867  0.00  0.00    -0.004 C 
ATOM      2  C   UNL     1       9.706  -7.021   7.071  0.00  0.00    +0.133 A 
ATOM      3  N   UNL     1       9.903  -5.774   6.637  0.00  0.00    -0.199 NA
ATOM      4  C   UNL     1       8.913  -5.188   5.951  0.00  0.00    +0.226 A 
ATOM      5  N   UNL     1       7.769  -5.817   5.704  0.00  0.00    -0.184 NA
ATOM      6  C   UNL     1       7.685  -7.047   6.188  0.00  0.00    +0.227 A 
ATOM      7  N   UNL     1       8.595  -7.714   6.881  0.00  0.00    -0.203 NA
ATOM      8 CL   UNL     1       6.216  -7.868   5.894  0.00  0.00    -0.041 Cl
ATOM      9  N   UNL     1       9.100  -3.874   5.462  0.00  0.00    -0.273 N 
ATOM     10  C   UNL     1      10.475  -3.389   5.562  0.00  0.00    +0.008 C 
ENDROOT
BRANCH   9  11
ATOM     11  C   UNL     1       8.205  -3.144   4.651  0.00  0.00    +0.036 A 
ATOM     12  C   UNL     1       7.506  -2.036   5.164  0.00  0.00    -0.039 A 
ATOM     13  C   UNL     1       6.618  -1.296   4.375  0.00  0.00    -0.042 A 
ATOM     14  C   UNL     1       6.410  -1.654   3.049  0.00  0.00    +0.041 A 
ATOM     15  C   UNL     1       7.085  -2.743   2.508  0.00  0.00    -0.042 A 
ATOM     16  C   UNL     1       7.972  -3.478   3.304  0.00  0.00    -0.039 A 
ATOM     17 CL   UNL     1       5.321  -0.749   2.074  0.00  0.00    -0.084 Cl
ENDBRANCH   9  11
TORSDOF 1
ENDMDL
MODEL 7
REMARK VINA RESULT:    -6.595      2.718      6.216
REMARK INTER + INTRA:          -7.181
REMARK INTER:                  -7.539
REMARK INTRA:                   0.359
REMARK UNBOUND:                -0.201
REMARK  Name = 
REMARK  3 active torsions:
REMARK  status: ('A' for Active; 'I' for Inactive)
REMARK    1  A    between atoms: C_1  and  C_2
REMARK    2  A    between atoms: N_9  and  C_10
REMARK    3  A    between atoms: N_9  and  C_17
REMARK                            x       y       z     vdW  Elec       q    Type
REMARK                         _______ _______ _______ _____ _____    ______ ____
ROOT
ATOM      1  C   UNL     1       5.935  -1.875   0.382  0.00  0.00    -0.004 C 
ATOM      2  C   UNL     1       6.072  -0.723   1.326  0.00  0.00    +0.133 A 
ATOM      3  N   UNL     1       5.290   0.340   1.123  0.00  0.00    -0.199 NA
ATOM      4  C   UNL     1       5.432   1.387   1.947  0.00  0.00    +0.226 A 
ATOM      5  N   UNL     1       6.318   1.378   2.937  0.00  0.00    -0.184 NA
ATOM      6  C   UNL     1       7.042   0.274   3.038  0.00  0.00    +0.227 A 
ATOM      7  N   UNL     1       6.988  -0.809   2.278  0.00  0.00    -0.203 NA
ATOM      8 CL   UNL     1       8.197   0.249   4.296  0.00  0.00    -0.041 Cl
ATOM      9  N   UNL     1       4.604   2.519   1.768  0.00  0.00    -0.273 N 
ATOM     10  C   UNL     1       3.502   2.313   0.830  0.00  0.00    +0.008 C 
ENDROOT
BRANCH   9  11
ATOM     11  C   UNL     1       4.557   3.665   2.592  0.00  0.00    +0.036 A 
ATOM     12  C   UNL     1       5.719   4.151   3.218  0.00  0.00    -0.039 A 
ATOM     13  C   UNL     1       5.696   5.287   4.035  0.00  0.00    -0.042 A 
ATOM     14  C   UNL     1       4.500   5.962   4.242  0.00  0.00    +0.041 A 
ATOM     15  C   UNL     1       3.331   5.510   3.639  0.00  0.00    -0.042 A 
ATOM     16  C   UNL     1       3.363   4.373   2.822  0.00  0.00    -0.039 A 
ATOM     17 CL   UNL     1       4.462   7.359   5.243  0.00  0.00    -0.084 Cl
ENDBRANCH   9  11
TORSDOF 1
ENDMDL
MODEL 8
REMARK VINA RESULT:    -6.432      1.889      2.366
REMARK INTER + INTRA:          -7.009
REMARK INTER:                  -7.426
REMARK INTRA:                   0.418
REMARK UNBOUND:                -0.201
REMARK  Name = 
REMARK  3 active torsions:
REMARK  status: ('A' for Active; 'I' for Inactive)
REMARK    1  A    between atoms: C_1  and  C_2
REMARK    2  A    between atoms: N_9  and  C_10
REMARK    3  A    between atoms: N_9  and  C_17
REMARK                            x       y       z     vdW  Elec       q    Type
REMARK                         _______ _______ _______ _____ _____    ______ ____
ROOT
ATOM      1  C   UNL     1       4.062   4.066   0.749  0.00  0.00    -0.004 C 
ATOM      2  C   UNL     1       4.816   3.197   1.706  0.00  0.00    +0.133 A 
ATOM      3  N   UNL     1       4.885   1.892   1.434  0.00  0.00    -0.199 NA
ATOM      4  C   UNL     1       5.533   1.106   2.305  0.00  0.00    +0.226 A 
ATOM      5  N   UNL     1       6.091   1.599   3.405  0.00  0.00    -0.184 NA
ATOM      6  C   UNL     1       5.953   2.905   3.573  0.00  0.00    +0.227 A 
ATOM      7  N   UNL     1       5.331   3.767   2.783  0.00  0.00    -0.203 NA
ATOM      8 CL   UNL     1       6.652   3.556   4.990  0.00  0.00    -0.041 Cl
ATOM      9  N   UNL     1       5.640  -0.277   2.034  0.00  0.00    -0.273 N 
ATOM     10  C   UNL     1       5.225  -0.657   0.685  0.00  0.00    +0.008 C 
ENDROOT
BRANCH   9  11
ATOM     11  C   UNL     1       6.357  -1.229   2.791  0.00  0.00    +0.036 A 
ATOM     12  C   UNL     1       6.844  -2.407   2.196  0.00  0.00    -0.039 A 
ATOM     13  C   UNL     1       7.561  -3.360   2.927  0.00  0.00    -0.042 A 
ATOM     14  C   UNL     1       7.804  -3.152   4.279  0.00  0.00    +0.041 A 
ATOM     15  C   UNL     1       7.338  -1.999   4.901  0.00  0.00    -0.042 A 
ATOM     16  C   UNL     1       6.622  -1.049   4.161  0.00  0.00    -0.039 A 
ATOM     17 CL   UNL     1       8.684  -4.319   5.185  0.00  0.00    -0.084 Cl
ENDBRANCH   9  11
TORSDOF 1
ENDMDL
MODEL 9
REMARK VINA RESULT:    -6.418      4.268      5.977
REMARK INTER + INTRA:          -6.994
REMARK INTER:                  -7.151
REMARK INTRA:                   0.158
REMARK UNBOUND:                -0.201
REMARK  Name = 
REMARK  3 active torsions:
REMARK  status: ('A' for Active; 'I' for Inactive)
REMARK    1  A    between atoms: C_1  and  C_2
REMARK    2  A    between atoms: N_9  and  C_10
REMARK    3  A    between atoms: N_9  and  C_17
REMARK                            x       y       z     vdW  Elec       q    Type
REMARK                         _______ _______ _______ _____ _____    ______ ____
ROOT
ATOM      1  C   UNL     1       6.004  -1.119   0.847  0.00  0.00    -0.004 C 
ATOM      2  C   UNL     1       6.732  -1.196   2.152  0.00  0.00    +0.133 A 
ATOM      3  N   UNL     1       6.735  -2.369   2.791  0.00  0.00    -0.199 NA
ATOM      4  C   UNL     1       7.359  -2.434   3.975  0.00  0.00    +0.226 A 
ATOM      5  N   UNL     1       7.959  -1.373   4.505  0.00  0.00    -0.184 NA
ATOM      6  C   UNL     1       7.886  -0.264   3.785  0.00  0.00    +0.227 A 
ATOM      7  N   UNL     1       7.292  -0.090   2.614  0.00  0.00    -0.203 NA
ATOM      8 CL   UNL     1       8.638   1.115   4.456  0.00  0.00    -0.041 Cl
ATOM      9  N   UNL     1       7.395  -3.667   4.665  0.00  0.00    -0.273 N 
ATOM     10  C   UNL     1       6.940  -4.809   3.875  0.00  0.00    +0.008 C 
ENDROOT
BRANCH   9  11
ATOM     11  C   UNL     1       8.078  -3.935   5.871  0.00  0.00    +0.036 A 
ATOM     12  C   UNL     1       8.897  -5.072   6.000  0.00  0.00    -0.039 A 
ATOM     13  C   UNL     1       9.587  -5.353   7.184  0.00  0.00    -0.042 A 
ATOM     14  C   UNL     1       9.467  -4.496   8.271  0.00  0.00    +0.041 A 
ATOM     15  C   UNL     1       8.667  -3.363   8.180  0.00  0.00    -0.042 A 
ATOM     16  C   UNL     1       7.981  -3.088   6.991  0.00  0.00    -0.039 A 
ATOM     17 CL   UNL     1      10.311  -4.835   9.730  0.00  0.00    -0.084 Cl
ENDBRANCH   9  11
TORSDOF 1
ENDMDL
