MODEL 1
REMARK VINA RESULT:    -7.832      0.000      0.000
REMARK INTER + INTRA:          -9.817
REMARK INTER:                  -9.434
REMARK INTRA:                  -0.383
REMARK UNBOUND:                -0.383
REMARK  Name = 
REMARK  7 active torsions:
REMARK  status: ('A' for Active; 'I' for Inactive)
REMARK    1  A    between atoms: C_1  and  O_2
REMARK    2  A    between atoms: O_2  and  C_3
REMARK    3  A    between atoms: C_5  and  C_6
REMARK    4  A    between atoms: C_7  and  N_8
REMARK    5  A    between atoms: C_14  and  N_15
REMARK    6  A    between atoms: C_18  and  O_19
REMARK    7  A    between atoms: O_19  and  C_20
REMARK                            x       y       z     vdW  Elec       q    Type
REMARK                         _______ _______ _______ _____ _____    ______ ____
ROOT
ATOM      1  N   UNL     1       4.353   0.357   0.364  0.00  0.00    -0.299 N 
ATOM      2  C   UNL     1       4.621   1.358  -0.609  0.00  0.00    +0.130 A 
ATOM      3  N   UNL     1       5.754   2.076  -0.559  0.00  0.00    -0.199 NA
ATOM      4  C   UNL     1       5.930   3.009  -1.493  0.00  0.00    +0.216 A 
ATOM      5  N   UNL     1       7.090   3.756  -1.430  0.00  0.00    -0.327 N 
ATOM      6  N   UNL     1       5.059   3.302  -2.460  0.00  0.00    -0.200 NA
ATOM      7  C   UNL     1       3.942   2.572  -2.496  0.00  0.00    +0.123 A 
ATOM      8  C   UNL     1       3.669   1.583  -1.582  0.00  0.00    +0.018 A 
ATOM      9  H   UNL     1       3.541  -0.191   0.252  0.00  0.00    +0.000 HD
ATOM     10  H   UNL     1       7.757   3.570  -0.731  0.00  0.00    +0.000 HD
ATOM     11  H   UNL     1       7.248   4.476  -2.083  0.00  0.00    +0.000 HD
ENDROOT
BRANCH   1  16
ATOM     12  C   UNL     1       6.722  -0.383   3.804  0.00  0.00    +0.162 A 
ATOM     13  C   UNL     1       6.641  -1.343   2.790  0.00  0.00    -0.012 A 
ATOM     14  C   UNL     1       5.885  -1.114   1.627  0.00  0.00    -0.026 A 
ATOM     15  C   UNL     1       5.843  -2.190   0.574  0.00  0.00    -0.038 C 
ATOM     16  C   UNL     1       5.181   0.096   1.487  0.00  0.00    +0.039 A 
ATOM     17  C   UNL     1       5.259   1.055   2.512  0.00  0.00    +0.005 A 
ATOM     18  C   UNL     1       6.023   0.829   3.663  0.00  0.00    +0.163 A 
BRANCH  12  20
ATOM     19  C   UNL     1       8.864  -0.546   4.852  0.00  0.00    +0.079 C 
ATOM     20  O   UNL     1       7.449  -0.531   4.960  0.00  0.00    -0.491 OA
ENDBRANCH  12  20
BRANCH  18  21
ATOM     21  O   UNL     1       6.150   1.722   4.699  0.00  0.00    -0.491 OA
ATOM     22  C   UNL     1       5.830   3.081   4.441  0.00  0.00    +0.079 C 
ENDBRANCH  18  21
ENDBRANCH   1  16
BRANCH   7  23
ATOM     23  N   UNL     1       3.021   2.889  -3.495  0.00  0.00    -0.343 N 
ATOM     24  H   UNL     1       2.123   2.485  -3.482  0.00  0.00    +0.000 HD
ATOM     25  H   UNL     1       3.268   3.516  -4.212  0.00  0.00    +0.000 HD
ENDBRANCH   7  23
TORSDOF 4
ENDMDL
MODEL 2
REMARK VINA RESULT:    -7.830      4.395      6.283
REMARK INTER + INTRA:          -9.815
REMARK INTER:                  -9.300
REMARK INTRA:                  -0.515
REMARK UNBOUND:                -0.383
REMARK  Name = 
REMARK  7 active torsions:
REMARK  status: ('A' for Active; 'I' for Inactive)
REMARK    1  A    between atoms: C_1  and  O_2
REMARK    2  A    between atoms: O_2  and  C_3
REMARK    3  A    between atoms: C_5  and  C_6
REMARK    4  A    between atoms: C_7  and  N_8
REMARK    5  A    between atoms: C_14  and  N_15
REMARK    6  A    between atoms: C_18  and  O_19
REMARK    7  A    between atoms: O_19  and  C_20
REMARK                            x       y       z     vdW  Elec       q    Type
REMARK                         _______ _______ _______ _____ _____    ______ ____
ROOT
ATOM      1  N   UNL     1       3.499   3.921   2.791  0.00  0.00    -0.299 N 
ATOM      2  C   UNL     1       3.742   3.464   1.467  0.00  0.00    +0.130 A 
ATOM      3  N   UNL     1       4.385   4.240   0.581  0.00  0.00    -0.199 NA
ATOM      4  C   UNL     1       4.561   3.753  -0.646  0.00  0.00    +0.216 A 
ATOM      5  N   UNL     1       5.210   4.560  -1.560  0.00  0.00    -0.327 N 
ATOM      6  N   UNL     1       4.127   2.565  -1.071  0.00  0.00    -0.200 NA
ATOM      7  C   UNL     1       3.496   1.806  -0.173  0.00  0.00    +0.123 A 
ATOM      8  C   UNL     1       3.269   2.215   1.120  0.00  0.00    +0.018 A 
ATOM      9  H   UNL     1       3.082   3.294   3.427  0.00  0.00    +0.000 HD
ATOM     10  H   UNL     1       5.545   5.443  -1.285  0.00  0.00    +0.000 HD
ATOM     11  H   UNL     1       5.337   4.252  -2.487  0.00  0.00    +0.000 HD
ENDROOT
BRANCH   1  16
ATOM     12  C   UNL     1       4.328   7.827   4.224  0.00  0.00    +0.162 A 
ATOM     13  C   UNL     1       5.206   6.775   4.510  0.00  0.00    -0.012 A 
ATOM     14  C   UNL     1       4.970   5.476   4.026  0.00  0.00    -0.026 A 
ATOM     15  C   UNL     1       5.956   4.392   4.370  0.00  0.00    -0.038 C 
ATOM     16  C   UNL     1       3.821   5.224   3.255  0.00  0.00    +0.039 A 
ATOM     17  C   UNL     1       2.938   6.282   2.976  0.00  0.00    +0.005 A 
ATOM     18  C   UNL     1       3.181   7.576   3.449  0.00  0.00    +0.163 A 
BRANCH  12  20
ATOM     19  C   UNL     1       5.427   9.930   3.947  0.00  0.00    +0.079 C 
ATOM     20  O   UNL     1       4.498   9.121   4.652  0.00  0.00    -0.491 OA
ENDBRANCH  12  20
BRANCH  18  21
ATOM     21  O   UNL     1       2.367   8.657   3.211  0.00  0.00    -0.491 OA
ATOM     22  C   UNL     1       2.135   9.021   1.859  0.00  0.00    +0.079 C 
ENDBRANCH  18  21
ENDBRANCH   1  16
BRANCH   7  23
ATOM     23  N   UNL     1       3.025   0.571  -0.619  0.00  0.00    -0.343 N 
ATOM     24  H   UNL     1       2.059   0.381  -0.612  0.00  0.00    +0.000 HD
ATOM     25  H   UNL     1       3.659  -0.111  -0.940  0.00  0.00    +0.000 HD
ENDBRANCH   7  23
TORSDOF 4
ENDMDL
MODEL 3
REMARK VINA RESULT:    -7.656      1.986      3.009
REMARK INTER + INTRA:          -9.605
REMARK INTER:                  -9.110
REMARK INTRA:                  -0.495
REMARK UNBOUND:                -0.383
REMARK  Name = 
REMARK  7 active torsions:
REMARK  status: ('A' for Active; 'I' for Inactive)
REMARK    1  A    between atoms: C_1  and  O_2
REMARK    2  A    between atoms: O_2  and  C_3
REMARK    3  A    between atoms: C_5  and  C_6
REMARK    4  A    between atoms: C_7  and  N_8
REMARK    5  A    between atoms: C_14  and  N_15
REMARK    6  A    between atoms: C_18  and  O_19
REMARK    7  A    between atoms: O_19  and  C_20
REMARK                            x       y       z     vdW  Elec       q    Type
REMARK                         _______ _______ _______ _____ _____    ______ ____
ROOT
ATOM      1  N   UNL     1       6.595   0.610   0.662  0.00  0.00    -0.299 N 
ATOM      2  C   UNL     1       5.609   1.634   0.628  0.00  0.00    +0.130 A 
ATOM      3  N   UNL     1       4.638   1.682   1.553  0.00  0.00    -0.199 NA
ATOM      4  C   UNL     1       3.739   2.658   1.448  0.00  0.00    +0.216 A 
ATOM      5  N   UNL     1       2.732   2.696   2.393  0.00  0.00    -0.327 N 
ATOM      6  N   UNL     1       3.711   3.577   0.482  0.00  0.00    -0.200 NA
ATOM      7  C   UNL     1       4.689   3.516  -0.425  0.00  0.00    +0.123 A 
ATOM      8  C   UNL     1       5.668   2.552  -0.401  0.00  0.00    +0.018 A 
ATOM      9  H   UNL     1       7.326   0.651   0.003  0.00  0.00    +0.000 HD
ATOM     10  H   UNL     1       2.718   2.034   3.122  0.00  0.00    +0.000 HD
ATOM     11  H   UNL     1       2.029   3.383   2.338  0.00  0.00    +0.000 HD
ENDROOT
BRANCH   1  16
ATOM     12  C   UNL     1       6.534  -2.520   3.524  0.00  0.00    +0.162 A 
ATOM     13  C   UNL     1       6.034  -2.739   2.236  0.00  0.00    -0.012 A 
ATOM     14  C   UNL     1       6.066  -1.728   1.259  0.00  0.00    -0.026 A 
ATOM     15  C   UNL     1       5.514  -2.033  -0.108  0.00  0.00    -0.038 C 
ATOM     16  C   UNL     1       6.593  -0.466   1.587  0.00  0.00    +0.039 A 
ATOM     17  C   UNL     1       7.088  -0.247   2.885  0.00  0.00    +0.005 A 
ATOM     18  C   UNL     1       7.065  -1.260   3.852  0.00  0.00    +0.163 A 
BRANCH  12  20
ATOM     19  C   UNL     1       7.355  -4.612   4.336  0.00  0.00    +0.079 C 
ATOM     20  O   UNL     1       6.547  -3.460   4.524  0.00  0.00    -0.491 OA
ENDBRANCH  12  20
BRANCH  18  21
ATOM     21  O   UNL     1       7.535  -1.120   5.135  0.00  0.00    -0.491 OA
ATOM     22  C   UNL     1       8.938  -0.987   5.312  0.00  0.00    +0.079 C 
ENDBRANCH  18  21
ENDBRANCH   1  16
BRANCH   7  23
ATOM     23  N   UNL     1       4.653   4.465  -1.447  0.00  0.00    -0.343 N 
ATOM     24  H   UNL     1       3.826   4.602  -1.963  0.00  0.00    +0.000 HD
ATOM     25  H   UNL     1       5.455   4.998  -1.653  0.00  0.00    +0.000 HD
ENDBRANCH   7  23
TORSDOF 4
ENDMDL
MODEL 4
REMARK VINA RESULT:    -7.292      4.205      7.212
REMARK INTER + INTRA:          -9.166
REMARK INTER:                  -8.726
REMARK INTRA:                  -0.440
REMARK UNBOUND:                -0.383
REMARK  Name = 
REMARK  7 active torsions:
REMARK  status: ('A' for Active; 'I' for Inactive)
REMARK    1  A    between atoms: C_1  and  O_2
REMARK    2  A    between atoms: O_2  and  C_3
REMARK    3  A    between atoms: C_5  and  C_6
REMARK    4  A    between atoms: C_7  and  N_8
REMARK    5  A    between atoms: C_14  and  N_15
REMARK    6  A    between atoms: C_18  and  O_19
REMARK    7  A    between atoms: O_19  and  C_20
REMARK                            x       y       z     vdW  Elec       q    Type
REMARK                         _______ _______ _______ _____ _____    ______ ____
ROOT
ATOM      1  N   UNL     1       8.345  -1.148   3.383  0.00  0.00    -0.299 N 
ATOM      2  C   UNL     1       8.467  -2.274   4.242  0.00  0.00    +0.130 A 
ATOM      3  N   UNL     1       7.380  -2.836   4.793  0.00  0.00    -0.199 NA
ATOM      4  C   UNL     1       7.571  -3.878   5.601  0.00  0.00    +0.216 A 
ATOM      5  N   UNL     1       6.452  -4.445   6.178  0.00  0.00    -0.327 N 
ATOM      6  N   UNL     1       8.760  -4.389   5.926  0.00  0.00    -0.200 NA
ATOM      7  C   UNL     1       9.827  -3.820   5.363  0.00  0.00    +0.123 A 
ATOM      8  C   UNL     1       9.735  -2.745   4.511  0.00  0.00    +0.018 A 
ATOM      9  H   UNL     1       9.161  -0.807   2.949  0.00  0.00    +0.000 HD
ATOM     10  H   UNL     1       5.558  -4.095   5.963  0.00  0.00    +0.000 HD
ATOM     11  H   UNL     1       6.549  -5.198   6.805  0.00  0.00    +0.000 HD
ENDROOT
BRANCH   1  16
ATOM     12  C   UNL     1       4.757   0.959   2.559  0.00  0.00    +0.162 A 
ATOM     13  C   UNL     1       5.055  -0.215   1.859  0.00  0.00    -0.012 A 
ATOM     14  C   UNL     1       6.225  -0.948   2.130  0.00  0.00    -0.026 A 
ATOM     15  C   UNL     1       6.483  -2.203   1.340  0.00  0.00    -0.038 C 
ATOM     16  C   UNL     1       7.120  -0.484   3.110  0.00  0.00    +0.039 A 
ATOM     17  C   UNL     1       6.820   0.701   3.806  0.00  0.00    +0.005 A 
ATOM     18  C   UNL     1       5.649   1.422   3.542  0.00  0.00    +0.163 A 
BRANCH  12  20
ATOM     19  C   UNL     1       3.439   2.285   1.071  0.00  0.00    +0.079 C 
ATOM     20  O   UNL     1       3.631   1.720   2.358  0.00  0.00    -0.491 OA
ENDBRANCH  12  20
BRANCH  18  21
ATOM     21  O   UNL     1       5.288   2.580   4.186  0.00  0.00    -0.491 OA
ATOM     22  C   UNL     1       6.312   3.318   4.838  0.00  0.00    +0.079 C 
ENDBRANCH  18  21
ENDBRANCH   1  16
BRANCH   7  23
ATOM     23  N   UNL     1      11.072  -4.341   5.715  0.00  0.00    -0.343 N 
ATOM     24  H   UNL     1      11.178  -4.836   6.560  0.00  0.00    +0.000 HD
ATOM     25  H   UNL     1      11.846  -4.215   5.118  0.00  0.00    +0.000 HD
ENDBRANCH   7  23
TORSDOF 4
ENDMDL
MODEL 5
REMARK VINA RESULT:    -7.146      4.596      7.793
REMARK INTER + INTRA:          -8.991
REMARK INTER:                  -8.713
REMARK INTRA:                  -0.277
REMARK UNBOUND:                -0.383
REMARK  Name = 
REMARK  7 active torsions:
REMARK  status: ('A' for Active; 'I' for Inactive)
REMARK    1  A    between atoms: C_1  and  O_2
REMARK    2  A    between atoms: O_2  and  C_3
REMARK    3  A    between atoms: C_5  and  C_6
REMARK    4  A    between atoms: C_7  and  N_8
REMARK    5  A    between atoms: C_14  and  N_15
REMARK    6  A    between atoms: C_18  and  O_19
REMARK    7  A    between atoms: O_19  and  C_20
REMARK                            x       y       z     vdW  Elec       q    Type
REMARK                         _______ _______ _______ _____ _____    ______ ____
ROOT
ATOM      1  N   UNL     1       9.001  -1.180   3.853  0.00  0.00    -0.299 N 
ATOM      2  C   UNL     1       8.895  -2.361   4.638  0.00  0.00    +0.130 A 
ATOM      3  N   UNL     1       7.693  -2.867   4.956  0.00  0.00    -0.199 NA
ATOM      4  C   UNL     1       7.670  -3.965   5.708  0.00  0.00    +0.216 A 
ATOM      5  N   UNL     1       6.432  -4.475   6.046  0.00  0.00    -0.327 N 
ATOM      6  N   UNL     1       8.746  -4.588   6.192  0.00  0.00    -0.200 NA
ATOM      7  C   UNL     1       9.931  -4.073   5.859  0.00  0.00    +0.123 A 
ATOM      8  C   UNL     1      10.062  -2.946   5.082  0.00  0.00    +0.018 A 
ATOM      9  H   UNL     1       9.901  -0.880   3.588  0.00  0.00    +0.000 HD
ATOM     10  H   UNL     1       5.614  -4.044   5.709  0.00  0.00    +0.000 HD
ATOM     11  H   UNL     1       6.367  -5.269   6.625  0.00  0.00    +0.000 HD
ENDROOT
BRANCH   1  16
ATOM     12  C   UNL     1       5.597   1.024   2.606  0.00  0.00    +0.162 A 
ATOM     13  C   UNL     1       6.532   1.608   3.468  0.00  0.00    -0.012 A 
ATOM     14  C   UNL     1       7.683   0.910   3.876  0.00  0.00    -0.026 A 
ATOM     15  C   UNL     1       8.649   1.599   4.803  0.00  0.00    -0.038 C 
ATOM     16  C   UNL     1       7.890  -0.406   3.425  0.00  0.00    +0.039 A 
ATOM     17  C   UNL     1       6.944  -0.992   2.565  0.00  0.00    +0.005 A 
ATOM     18  C   UNL     1       5.806  -0.290   2.151  0.00  0.00    +0.163 A 
BRANCH  12  20
ATOM     19  C   UNL     1       3.495   2.036   3.123  0.00  0.00    +0.079 C 
ATOM     20  O   UNL     1       4.459   1.646   2.156  0.00  0.00    -0.491 OA
ENDBRANCH  12  20
BRANCH  18  21
ATOM     21  O   UNL     1       4.845  -0.795   1.309  0.00  0.00    -0.491 OA
ATOM     22  C   UNL     1       5.271  -1.305   0.054  0.00  0.00    +0.079 C 
ENDBRANCH  18  21
ENDBRANCH   1  16
BRANCH   7  23
ATOM     23  N   UNL     1      11.059  -4.710   6.377  0.00  0.00    -0.343 N 
ATOM     24  H   UNL     1      11.329  -5.592   6.030  0.00  0.00    +0.000 HD
ATOM     25  H   UNL     1      11.584  -4.280   7.090  0.00  0.00    +0.000 HD
ENDBRANCH   7  23
TORSDOF 4
ENDMDL
MODEL 6
REMARK VINA RESULT:    -7.141      3.511      6.099
REMARK INTER + INTRA:          -8.984
REMARK INTER:                  -8.530
REMARK INTRA:                  -0.454
REMARK UNBOUND:                -0.383
REMARK  Name = 
REMARK  7 active torsions:
REMARK  status: ('A' for Active; 'I' for Inactive)
REMARK    1  A    between atoms: C_1  and  O_2
REMARK    2  A    between atoms: O_2  and  C_3
REMARK    3  A    between atoms: C_5  and  C_6
REMARK    4  A    between atoms: C_7  and  N_8
REMARK    5  A    between atoms: C_14  and  N_15
REMARK    6  A    between atoms: C_18  and  O_19
REMARK    7  A    between atoms: O_19  and  C_20
REMARK                            x       y       z     vdW  Elec       q    Type
REMARK                         _______ _______ _______ _____ _____    ______ ____
ROOT
ATOM      1  N   UNL     1       5.161  -1.304   1.853  0.00  0.00    -0.299 N 
ATOM      2  C   UNL     1       6.211  -1.884   2.616  0.00  0.00    +0.130 A 
ATOM      3  N   UNL     1       7.291  -1.164   2.954  0.00  0.00    -0.199 NA
ATOM      4  C   UNL     1       8.243  -1.778   3.655  0.00  0.00    +0.216 A 
ATOM      5  N   UNL     1       9.360  -1.038   3.988  0.00  0.00    -0.327 N 
ATOM      6  N   UNL     1       8.218  -3.059   4.026  0.00  0.00    -0.200 NA
ATOM      7  C   UNL     1       7.131  -3.756   3.686  0.00  0.00    +0.123 A 
ATOM      8  C   UNL     1       6.092  -3.213   2.969  0.00  0.00    +0.018 A 
ATOM      9  H   UNL     1       4.357  -1.848   1.683  0.00  0.00    +0.000 HD
ATOM     10  H   UNL     1       9.416  -0.090   3.732  0.00  0.00    +0.000 HD
ATOM     11  H   UNL     1      10.101  -1.460   4.481  0.00  0.00    +0.000 HD
ENDROOT
BRANCH   1  16
ATOM     12  C   UNL     1       5.308   2.675   0.389  0.00  0.00    +0.162 A 
ATOM     13  C   UNL     1       5.932   1.645  -0.321  0.00  0.00    -0.012 A 
ATOM     14  C   UNL     1       5.877   0.312   0.126  0.00  0.00    -0.026 A 
ATOM     15  C   UNL     1       6.570  -0.748  -0.688  0.00  0.00    -0.038 C 
ATOM     16  C   UNL     1       5.197   0.012   1.320  0.00  0.00    +0.039 A 
ATOM     17  C   UNL     1       4.577   1.052   2.035  0.00  0.00    +0.005 A 
ATOM     18  C   UNL     1       4.624   2.375   1.581  0.00  0.00    +0.163 A 
BRANCH  12  20
ATOM     19  C   UNL     1       4.542   4.352  -1.131  0.00  0.00    +0.079 C 
ATOM     20  O   UNL     1       5.309   3.995   0.008  0.00  0.00    -0.491 OA
ENDBRANCH  12  20
BRANCH  18  21
ATOM     21  O   UNL     1       4.036   3.438   2.222  0.00  0.00    -0.491 OA
ATOM     22  C   UNL     1       3.257   3.162   3.376  0.00  0.00    +0.079 C 
ENDBRANCH  18  21
ENDBRANCH   1  16
BRANCH   7  23
ATOM     23  N   UNL     1       7.110  -5.101   4.057  0.00  0.00    -0.343 N 
ATOM     24  H   UNL     1       6.295  -5.637   3.919  0.00  0.00    +0.000 HD
ATOM     25  H   UNL     1       7.909  -5.514   4.456  0.00  0.00    +0.000 HD
ENDBRANCH   7  23
TORSDOF 4
ENDMDL
MODEL 7
REMARK VINA RESULT:    -7.100      6.119      8.323
REMARK INTER + INTRA:          -8.935
REMARK INTER:                  -8.428
REMARK INTRA:                  -0.508
REMARK UNBOUND:                -0.383
REMARK  Name = 
REMARK  7 active torsions:
REMARK  status: ('A' for Active; 'I' for Inactive)
REMARK    1  A    between atoms: C_1  and  O_2
REMARK    2  A    between atoms: O_2  and  C_3
REMARK    3  A    between atoms: C_5  and  C_6
REMARK    4  A    between atoms: C_7  and  N_8
REMARK    5  A    between atoms: C_14  and  N_15
REMARK    6  A    between atoms: C_18  and  O_19
REMARK    7  A    between atoms: O_19  and  C_20
REMARK                            x       y       z     vdW  Elec       q    Type
REMARK                         _______ _______ _______ _____ _____    ______ ____
ROOT
ATOM      1  N   UNL     1       3.170   6.077   4.066  0.00  0.00    -0.299 N 
ATOM      2  C   UNL     1       3.228   4.982   3.160  0.00  0.00    +0.130 A 
ATOM      3  N   UNL     1       3.731   5.140   1.926  0.00  0.00    -0.199 NA
ATOM      4  C   UNL     1       3.738   4.075   1.126  0.00  0.00    +0.216 A 
ATOM      5  N   UNL     1       4.242   4.244  -0.148  0.00  0.00    -0.327 N 
ATOM      6  N   UNL     1       3.261   2.871   1.446  0.00  0.00    -0.200 NA
ATOM      7  C   UNL     1       2.771   2.733   2.680  0.00  0.00    +0.123 A 
ATOM      8  C   UNL     1       2.725   3.769   3.583  0.00  0.00    +0.018 A 
ATOM      9  H   UNL     1       2.854   5.902   4.983  0.00  0.00    +0.000 HD
ATOM     10  H   UNL     1       4.603   5.117  -0.422  0.00  0.00    +0.000 HD
ATOM     11  H   UNL     1       4.240   3.491  -0.783  0.00  0.00    +0.000 HD
ENDROOT
BRANCH   1  16
ATOM     12  C   UNL     1       4.152  10.094   3.122  0.00  0.00    +0.162 A 
ATOM     13  C   UNL     1       5.080   9.284   3.784  0.00  0.00    -0.012 A 
ATOM     14  C   UNL     1       4.792   7.941   4.086  0.00  0.00    -0.026 A 
ATOM     15  C   UNL     1       5.837   7.125   4.799  0.00  0.00    -0.038 C 
ATOM     16  C   UNL     1       3.540   7.406   3.732  0.00  0.00    +0.039 A 
ATOM     17  C   UNL     1       2.607   8.226   3.073  0.00  0.00    +0.005 A 
ATOM     18  C   UNL     1       2.902   9.559   2.763  0.00  0.00    +0.163 A 
BRANCH  12  20
ATOM     19  C   UNL     1       5.640  11.963   3.076  0.00  0.00    +0.079 C 
ATOM     20  O   UNL     1       4.367  11.408   2.784  0.00  0.00    -0.491 OA
ENDBRANCH  12  20
BRANCH  18  21
ATOM     21  O   UNL     1       2.043  10.415   2.117  0.00  0.00    -0.491 OA
ATOM     22  C   UNL     1       0.650  10.197   2.279  0.00  0.00    +0.079 C 
ENDBRANCH  18  21
ENDBRANCH   1  16
BRANCH   7  23
ATOM     23  N   UNL     1       2.255   1.480   3.012  0.00  0.00    -0.343 N 
ATOM     24  H   UNL     1       2.142   1.229   3.958  0.00  0.00    +0.000 HD
ATOM     25  H   UNL     1       2.004   0.847   2.302  0.00  0.00    +0.000 HD
ENDBRANCH   7  23
TORSDOF 4
ENDMDL
MODEL 8
REMARK VINA RESULT:    -7.032      2.931      4.873
REMARK INTER + INTRA:          -8.853
REMARK INTER:                  -8.461
REMARK INTRA:                  -0.392
REMARK UNBOUND:                -0.383
REMARK  Name = 
REMARK  7 active torsions:
REMARK  status: ('A' for Active; 'I' for Inactive)
REMARK    1  A    between atoms: C_1  and  O_2
REMARK    2  A    between atoms: O_2  and  C_3
REMARK    3  A    between atoms: C_5  and  C_6
REMARK    4  A    between atoms: C_7  and  N_8
REMARK    5  A    between atoms: C_14  and  N_15
REMARK    6  A    between atoms: C_18  and  O_19
REMARK    7  A    between atoms: O_19  and  C_20
REMARK                            x       y       z     vdW  Elec       q    Type
REMARK                         _______ _______ _______ _____ _____    ______ ____
ROOT
ATOM      1  N   UNL     1       7.232  -1.953   2.305  0.00  0.00    -0.299 N 
ATOM      2  C   UNL     1       6.337  -0.935   1.877  0.00  0.00    +0.130 A 
ATOM      3  N   UNL     1       5.719  -0.146   2.770  0.00  0.00    -0.199 NA
ATOM      4  C   UNL     1       4.882   0.776   2.297  0.00  0.00    +0.216 A 
ATOM      5  N   UNL     1       4.236   1.576   3.219  0.00  0.00    -0.327 N 
ATOM      6  N   UNL     1       4.589   0.960   1.009  0.00  0.00    -0.200 NA
ATOM      7  C   UNL     1       5.219   0.169   0.137  0.00  0.00    +0.123 A 
ATOM      8  C   UNL     1       6.106  -0.807   0.523  0.00  0.00    +0.018 A 
ATOM      9  H   UNL     1       7.713  -2.466   1.615  0.00  0.00    +0.000 HD
ATOM     10  H   UNL     1       4.425   1.470   4.179  0.00  0.00    +0.000 HD
ATOM     11  H   UNL     1       3.586   2.251   2.916  0.00  0.00    +0.000 HD
ENDROOT
BRANCH   1  16
ATOM     12  C   UNL     1       7.982  -3.059   6.331  0.00  0.00    +0.162 A 
ATOM     13  C   UNL     1       8.619  -1.941   5.782  0.00  0.00    -0.012 A 
ATOM     14  C   UNL     1       8.369  -1.535   4.459  0.00  0.00    -0.026 A 
ATOM     15  C   UNL     1       9.087  -0.322   3.932  0.00  0.00    -0.038 C 
ATOM     16  C   UNL     1       7.476  -2.278   3.665  0.00  0.00    +0.039 A 
ATOM     17  C   UNL     1       6.843  -3.405   4.219  0.00  0.00    +0.005 A 
ATOM     18  C   UNL     1       7.085  -3.799   5.541  0.00  0.00    +0.163 A 
BRANCH  12  20
ATOM     19  C   UNL     1       9.345  -4.246   7.894  0.00  0.00    +0.079 C 
ATOM     20  O   UNL     1       8.166  -3.506   7.617  0.00  0.00    -0.491 OA
ENDBRANCH  12  20
BRANCH  18  21
ATOM     21  O   UNL     1       6.499  -4.883   6.148  0.00  0.00    -0.491 OA
ATOM     22  C   UNL     1       6.858  -6.174   5.680  0.00  0.00    +0.079 C 
ENDBRANCH  18  21
ENDBRANCH   1  16
BRANCH   7  23
ATOM     23  N   UNL     1       4.903   0.347  -1.210  0.00  0.00    -0.343 N 
ATOM     24  H   UNL     1       3.985   0.181  -1.526  0.00  0.00    +0.000 HD
ATOM     25  H   UNL     1       5.596   0.639  -1.845  0.00  0.00    +0.000 HD
ENDBRANCH   7  23
TORSDOF 4
ENDMDL
MODEL 9
REMARK VINA RESULT:    -6.978      3.983      5.189
REMARK INTER + INTRA:          -8.789
REMARK INTER:                  -8.813
REMARK INTRA:                   0.024
REMARK UNBOUND:                -0.383
REMARK  Name = 
REMARK  7 active torsions:
REMARK  status: ('A' for Active; 'I' for Inactive)
REMARK    1  A    between atoms: C_1  and  O_2
REMARK    2  A    between atoms: O_2  and  C_3
REMARK    3  A    between atoms: C_5  and  C_6
REMARK    4  A    between atoms: C_7  and  N_8
REMARK    5  A    between atoms: C_14  and  N_15
REMARK    6  A    between atoms: C_18  and  O_19
REMARK    7  A    between atoms: O_19  and  C_20
REMARK                            x       y       z     vdW  Elec       q    Type
REMARK                         _______ _______ _______ _____ _____    ______ ____
ROOT
ATOM      1  N   UNL     1       5.970   0.071   3.190  0.00  0.00    -0.299 N 
ATOM      2  C   UNL     1       6.466   1.319   3.656  0.00  0.00    +0.130 A 
ATOM      3  N   UNL     1       7.554   1.375   4.439  0.00  0.00    -0.199 NA
ATOM      4  C   UNL     1       7.951   2.577   4.852  0.00  0.00    +0.216 A 
ATOM      5  N   UNL     1       9.062   2.630   5.671  0.00  0.00    -0.327 N 
ATOM      6  N   UNL     1       7.337   3.728   4.571  0.00  0.00    -0.200 NA
ATOM      7  C   UNL     1       6.261   3.651   3.785  0.00  0.00    +0.123 A 
ATOM      8  C   UNL     1       5.775   2.460   3.302  0.00  0.00    +0.018 A 
ATOM      9  H   UNL     1       5.208   0.080   2.565  0.00  0.00    +0.000 HD
ATOM     10  H   UNL     1       9.542   1.803   5.902  0.00  0.00    +0.000 HD
ATOM     11  H   UNL     1       9.374   3.495   6.023  0.00  0.00    +0.000 HD
ENDROOT
BRANCH   1  16
ATOM     12  C   UNL     1       7.470  -3.701   4.421  0.00  0.00    +0.162 A 
ATOM     13  C   UNL     1       7.219  -3.456   3.066  0.00  0.00    -0.012 A 
ATOM     14  C   UNL     1       6.746  -2.207   2.627  0.00  0.00    -0.026 A 
ATOM     15  C   UNL     1       6.499  -2.010   1.155  0.00  0.00    -0.038 C 
ATOM     16  C   UNL     1       6.504  -1.189   3.567  0.00  0.00    +0.039 A 
ATOM     17  C   UNL     1       6.752  -1.442   4.928  0.00  0.00    +0.005 A 
ATOM     18  C   UNL     1       7.233  -2.684   5.361  0.00  0.00    +0.163 A 
BRANCH  12  20
ATOM     19  C   UNL     1       7.024  -5.965   5.042  0.00  0.00    +0.079 C 
ATOM     20  O   UNL     1       7.942  -4.890   4.921  0.00  0.00    -0.491 OA
ENDBRANCH  12  20
BRANCH  18  21
ATOM     21  O   UNL     1       7.502  -2.999   6.671  0.00  0.00    -0.491 OA
ATOM     22  C   UNL     1       8.771  -2.629   7.190  0.00  0.00    +0.079 C 
ENDBRANCH  18  21
ENDBRANCH   1  16
BRANCH   7  23
ATOM     23  N   UNL     1       5.606   4.850   3.503  0.00  0.00    -0.343 N 
ATOM     24  H   UNL     1       5.058   4.932   2.688  0.00  0.00    +0.000 HD
ATOM     25  H   UNL     1       5.691   5.615   4.117  0.00  0.00    +0.000 HD
ENDBRANCH   7  23
TORSDOF 4
ENDMDL
