=
 OpenBabel11202509283D

 25 26  0  0  0  0  0  0  0  0999 V2000
    4.3530    0.3570    0.3640 N   0  0  0  0  0  0  0  0  0  0  0  0
    4.6210    1.3580   -0.6090 C   0  0  0  0  0  0  0  0  0  0  0  0
    5.7540    2.0760   -0.5590 N   0  0  0  0  0  0  0  0  0  0  0  0
    5.9300    3.0090   -1.4930 C   0  0  0  0  0  0  0  0  0  0  0  0
    7.0900    3.7560   -1.4300 N   0  0  0  0  0  0  0  0  0  0  0  0
    5.0590    3.3020   -2.4600 N   0  0  0  0  0  0  0  0  0  0  0  0
    3.9420    2.5720   -2.4960 C   0  0  0  0  0  0  0  0  0  0  0  0
    3.6690    1.5830   -1.5820 C   0  0  0  0  0  3  0  0  0  0  0  0
    3.5410   -0.1910    0.2520 H   0  0  0  0  0  0  0  0  0  0  0  0
    7.7570    3.5700   -0.7310 H   0  0  0  0  0  0  0  0  0  0  0  0
    7.2480    4.4760   -2.0830 H   0  0  0  0  0  0  0  0  0  0  0  0
    6.7220   -0.3830    3.8040 C   0  0  0  0  0  0  0  0  0  0  0  0
    6.6410   -1.3430    2.7900 C   0  0  0  0  0  3  0  0  0  0  0  0
    5.8850   -1.1140    1.6270 C   0  0  0  0  0  0  0  0  0  0  0  0
    5.8430   -2.1900    0.5740 C   0  0  0  0  0  1  0  0  0  0  0  0
    5.1810    0.0960    1.4870 C   0  0  0  0  0  0  0  0  0  0  0  0
    5.2590    1.0550    2.5120 C   0  0  0  0  0  3  0  0  0  0  0  0
    6.0230    0.8290    3.6630 C   0  0  0  0  0  0  0  0  0  0  0  0
    8.8640   -0.5460    4.8520 C   0  0  0  0  0  1  0  0  0  0  0  0
    7.4490   -0.5310    4.9600 O   0  0  0  0  0  0  0  0  0  0  0  0
    6.1500    1.7220    4.6990 O   0  0  0  0  0  0  0  0  0  0  0  0
    5.8300    3.0810    4.4410 C   0  0  0  0  0  1  0  0  0  0  0  0
    3.0210    2.8890   -3.4950 N   0  0  0  0  0  0  0  0  0  0  0  0
    2.1230    2.4850   -3.4820 H   0  0  0  0  0  0  0  0  0  0  0  0
    3.2680    3.5160   -4.2120 H   0  0  0  0  0  0  0  0  0  0  0  0
  1 16  1  0  0  0  0
  2  3  1  0  0  0  0
  2  1  1  0  0  0  0
  4  5  1  0  0  0  0
  4  3  2  0  0  0  0
  5 10  1  0  0  0  0
  6  4  1  0  0  0  0
  7  6  2  0  0  0  0
  7  8  1  0  0  0  0
  8  2  2  0  0  0  0
  9  1  1  0  0  0  0
 11  5  1  0  0  0  0
 12 20  1  0  0  0  0
 13 12  2  0  0  0  0
 14 13  1  0  0  0  0
 15 14  1  0  0  0  0
 16 14  2  0  0  0  0
 16 17  1  0  0  0  0
 17 18  2  0  0  0  0
 18 12  1  0  0  0  0
 18 21  1  0  0  0  0
 19 20  1  0  0  0  0
 22 21  1  0  0  0  0
 23 24  1  0  0  0  0
 23  7  1  0  0  0  0
 25 23  1  0  0  0  0
M  END
>  <MODEL>
1

>  <REMARK>
 VINA RESULT:    -7.832      0.000      0.000
 INTER + INTRA:          -9.817
 INTER:                  -9.434
 INTRA:                  -0.383
 UNBOUND:                -0.383
  Name = 
  7 active torsions:
  status: ('A' for Active; 'I' for Inactive)
    1  A    between atoms: C_1  and  O_2
    2  A    between atoms: O_2  and  C_3
    3  A    between atoms: C_5  and  C_6
    4  A    between atoms: C_7  and  N_8
    5  A    between atoms: C_14  and  N_15
    6  A    between atoms: C_18  and  O_19
    7  A    between atoms: O_19  and  C_20
                            x       y       z     vdW  Elec       q    Type
                         _______ _______ _______ _____ _____    ______ ____

>  <TORSDO>
F 4

$$$$
=
 OpenBabel11202509283D

 25 26  0  0  0  0  0  0  0  0999 V2000
    3.4990    3.9210    2.7910 N   0  0  0  0  0  0  0  0  0  0  0  0
    3.7420    3.4640    1.4670 C   0  0  0  0  0  0  0  0  0  0  0  0
    4.3850    4.2400    0.5810 N   0  0  0  0  0  0  0  0  0  0  0  0
    4.5610    3.7530   -0.6460 C   0  0  0  0  0  0  0  0  0  0  0  0
    5.2100    4.5600   -1.5600 N   0  0  0  0  0  0  0  0  0  0  0  0
    4.1270    2.5650   -1.0710 N   0  0  0  0  0  0  0  0  0  0  0  0
    3.4960    1.8060   -0.1730 C   0  0  0  0  0  0  0  0  0  0  0  0
    3.2690    2.2150    1.1200 C   0  0  0  0  0  3  0  0  0  0  0  0
    3.0820    3.2940    3.4270 H   0  0  0  0  0  0  0  0  0  0  0  0
    5.5450    5.4430   -1.2850 H   0  0  0  0  0  0  0  0  0  0  0  0
    5.3370    4.2520   -2.4870 H   0  0  0  0  0  0  0  0  0  0  0  0
    4.3280    7.8270    4.2240 C   0  0  0  0  0  0  0  0  0  0  0  0
    5.2060    6.7750    4.5100 C   0  0  0  0  0  3  0  0  0  0  0  0
    4.9700    5.4760    4.0260 C   0  0  0  0  0  0  0  0  0  0  0  0
    5.9560    4.3920    4.3700 C   0  0  0  0  0  1  0  0  0  0  0  0
    3.8210    5.2240    3.2550 C   0  0  0  0  0  0  0  0  0  0  0  0
    2.9380    6.2820    2.9760 C   0  0  0  0  0  3  0  0  0  0  0  0
    3.1810    7.5760    3.4490 C   0  0  0  0  0  0  0  0  0  0  0  0
    5.4270    9.9300    3.9470 C   0  0  0  0  0  1  0  0  0  0  0  0
    4.4980    9.1210    4.6520 O   0  0  0  0  0  0  0  0  0  0  0  0
    2.3670    8.6570    3.2110 O   0  0  0  0  0  0  0  0  0  0  0  0
    2.1350    9.0210    1.8590 C   0  0  0  0  0  1  0  0  0  0  0  0
    3.0250    0.5710   -0.6190 N   0  0  0  0  0  0  0  0  0  0  0  0
    2.0590    0.3810   -0.6120 H   0  0  0  0  0  0  0  0  0  0  0  0
    3.6590   -0.1110   -0.9400 H   0  0  0  0  0  0  0  0  0  0  0  0
  1 16  1  0  0  0  0
  1  9  1  0  0  0  0
  2  1  1  0  0  0  0
  3  2  1  0  0  0  0
  4  3  2  0  0  0  0
  5 10  1  0  0  0  0
  5  4  1  0  0  0  0
  6  4  1  0  0  0  0
  6  7  2  0  0  0  0
  7  8  1  0  0  0  0
  8  2  2  0  0  0  0
 11  5  1  0  0  0  0
 12 13  1  0  0  0  0
 12 20  1  0  0  0  0
 14 15  1  0  0  0  0
 14 13  2  0  0  0  0
 16 14  1  0  0  0  0
 17 16  2  0  0  0  0
 17 18  1  0  0  0  0
 18 12  2  0  0  0  0
 19 20  1  0  0  0  0
 21 18  1  0  0  0  0
 22 21  1  0  0  0  0
 23 24  1  0  0  0  0
 23  7  1  0  0  0  0
 25 23  1  0  0  0  0
M  END
>  <MODEL>
2

>  <REMARK>
 VINA RESULT:    -7.830      4.395      6.283
 INTER + INTRA:          -9.815
 INTER:                  -9.300
 INTRA:                  -0.515
 UNBOUND:                -0.383
  Name = 
  7 active torsions:
  status: ('A' for Active; 'I' for Inactive)
    1  A    between atoms: C_1  and  O_2
    2  A    between atoms: O_2  and  C_3
    3  A    between atoms: C_5  and  C_6
    4  A    between atoms: C_7  and  N_8
    5  A    between atoms: C_14  and  N_15
    6  A    between atoms: C_18  and  O_19
    7  A    between atoms: O_19  and  C_20
                            x       y       z     vdW  Elec       q    Type
                         _______ _______ _______ _____ _____    ______ ____

>  <TORSDO>
F 4

$$$$
=
 OpenBabel11202509283D

 25 26  0  0  0  0  0  0  0  0999 V2000
    6.5950    0.6100    0.6620 N   0  0  0  0  0  0  0  0  0  0  0  0
    5.6090    1.6340    0.6280 C   0  0  0  0  0  0  0  0  0  0  0  0
    4.6380    1.6820    1.5530 N   0  0  0  0  0  0  0  0  0  0  0  0
    3.7390    2.6580    1.4480 C   0  0  0  0  0  0  0  0  0  0  0  0
    2.7320    2.6960    2.3930 N   0  0  0  0  0  0  0  0  0  0  0  0
    3.7110    3.5770    0.4820 N   0  0  0  0  0  0  0  0  0  0  0  0
    4.6890    3.5160   -0.4250 C   0  0  0  0  0  0  0  0  0  0  0  0
    5.6680    2.5520   -0.4010 C   0  0  0  0  0  3  0  0  0  0  0  0
    7.3260    0.6510    0.0030 H   0  0  0  0  0  0  0  0  0  0  0  0
    2.7180    2.0340    3.1220 H   0  0  0  0  0  0  0  0  0  0  0  0
    2.0290    3.3830    2.3380 H   0  0  0  0  0  0  0  0  0  0  0  0
    6.5340   -2.5200    3.5240 C   0  0  0  0  0  0  0  0  0  0  0  0
    6.0340   -2.7390    2.2360 C   0  0  0  0  0  3  0  0  0  0  0  0
    6.0660   -1.7280    1.2590 C   0  0  0  0  0  0  0  0  0  0  0  0
    5.5140   -2.0330   -0.1080 C   0  0  0  0  0  1  0  0  0  0  0  0
    6.5930   -0.4660    1.5870 C   0  0  0  0  0  0  0  0  0  0  0  0
    7.0880   -0.2470    2.8850 C   0  0  0  0  0  3  0  0  0  0  0  0
    7.0650   -1.2600    3.8520 C   0  0  0  0  0  0  0  0  0  0  0  0
    7.3550   -4.6120    4.3360 C   0  0  0  0  0  1  0  0  0  0  0  0
    6.5470   -3.4600    4.5240 O   0  0  0  0  0  0  0  0  0  0  0  0
    7.5350   -1.1200    5.1350 O   0  0  0  0  0  0  0  0  0  0  0  0
    8.9380   -0.9870    5.3120 C   0  0  0  0  0  1  0  0  0  0  0  0
    4.6530    4.4650   -1.4470 N   0  0  0  0  0  0  0  0  0  0  0  0
    3.8260    4.6020   -1.9630 H   0  0  0  0  0  0  0  0  0  0  0  0
    5.4550    4.9980   -1.6530 H   0  0  0  0  0  0  0  0  0  0  0  0
  1 16  1  0  0  0  0
  2  1  1  0  0  0  0
  2  3  1  0  0  0  0
  4  3  2  0  0  0  0
  4  5  1  0  0  0  0
  5 10  1  0  0  0  0
  6  4  1  0  0  0  0
  7  8  1  0  0  0  0
  7  6  2  0  0  0  0
  8  2  2  0  0  0  0
  9  1  1  0  0  0  0
 11  5  1  0  0  0  0
 12 18  1  0  0  0  0
 12 20  1  0  0  0  0
 13 12  2  0  0  0  0
 14 16  2  0  0  0  0
 14 13  1  0  0  0  0
 15 14  1  0  0  0  0
 16 17  1  0  0  0  0
 17 18  2  0  0  0  0
 18 21  1  0  0  0  0
 19 20  1  0  0  0  0
 21 22  1  0  0  0  0
 23  7  1  0  0  0  0
 24 23  1  0  0  0  0
 25 23  1  0  0  0  0
M  END
>  <MODEL>
3

>  <REMARK>
 VINA RESULT:    -7.656      1.986      3.009
 INTER + INTRA:          -9.605
 INTER:                  -9.110
 INTRA:                  -0.495
 UNBOUND:                -0.383
  Name = 
  7 active torsions:
  status: ('A' for Active; 'I' for Inactive)
    1  A    between atoms: C_1  and  O_2
    2  A    between atoms: O_2  and  C_3
    3  A    between atoms: C_5  and  C_6
    4  A    between atoms: C_7  and  N_8
    5  A    between atoms: C_14  and  N_15
    6  A    between atoms: C_18  and  O_19
    7  A    between atoms: O_19  and  C_20
                            x       y       z     vdW  Elec       q    Type
                         _______ _______ _______ _____ _____    ______ ____

>  <TORSDO>
F 4

$$$$
=
 OpenBabel11202509283D

 25 26  0  0  0  0  0  0  0  0999 V2000
    8.3450   -1.1480    3.3830 N   0  0  0  0  0  0  0  0  0  0  0  0
    8.4670   -2.2740    4.2420 C   0  0  0  0  0  0  0  0  0  0  0  0
    7.3800   -2.8360    4.7930 N   0  0  0  0  0  0  0  0  0  0  0  0
    7.5710   -3.8780    5.6010 C   0  0  0  0  0  0  0  0  0  0  0  0
    6.4520   -4.4450    6.1780 N   0  0  0  0  0  0  0  0  0  0  0  0
    8.7600   -4.3890    5.9260 N   0  0  0  0  0  0  0  0  0  0  0  0
    9.8270   -3.8200    5.3630 C   0  0  0  0  0  0  0  0  0  0  0  0
    9.7350   -2.7450    4.5110 C   0  0  0  0  0  3  0  0  0  0  0  0
    9.1610   -0.8070    2.9490 H   0  0  0  0  0  0  0  0  0  0  0  0
    5.5580   -4.0950    5.9630 H   0  0  0  0  0  0  0  0  0  0  0  0
    6.5490   -5.1980    6.8050 H   0  0  0  0  0  0  0  0  0  0  0  0
    4.7570    0.9590    2.5590 C   0  0  0  0  0  0  0  0  0  0  0  0
    5.0550   -0.2150    1.8590 C   0  0  0  0  0  3  0  0  0  0  0  0
    6.2250   -0.9480    2.1300 C   0  0  0  0  0  0  0  0  0  0  0  0
    6.4830   -2.2030    1.3400 C   0  0  0  0  0  1  0  0  0  0  0  0
    7.1200   -0.4840    3.1100 C   0  0  0  0  0  0  0  0  0  0  0  0
    6.8200    0.7010    3.8060 C   0  0  0  0  0  3  0  0  0  0  0  0
    5.6490    1.4220    3.5420 C   0  0  0  0  0  0  0  0  0  0  0  0
    3.4390    2.2850    1.0710 C   0  0  0  0  0  1  0  0  0  0  0  0
    3.6310    1.7200    2.3580 O   0  0  0  0  0  0  0  0  0  0  0  0
    5.2880    2.5800    4.1860 O   0  0  0  0  0  0  0  0  0  0  0  0
    6.3120    3.3180    4.8380 C   0  0  0  0  0  1  0  0  0  0  0  0
   11.0720   -4.3410    5.7150 N   0  0  0  0  0  0  0  0  0  0  0  0
   11.1780   -4.8360    6.5600 H   0  0  0  0  0  0  0  0  0  0  0  0
   11.8460   -4.2150    5.1180 H   0  0  0  0  0  0  0  0  0  0  0  0
  1  2  1  0  0  0  0
  2  8  2  0  0  0  0
  2  3  1  0  0  0  0
  3  4  2  0  0  0  0
  4  6  1  0  0  0  0
  4  5  1  0  0  0  0
  5 11  1  0  0  0  0
  7 23  1  0  0  0  0
  7  6  2  0  0  0  0
  8  7  1  0  0  0  0
  9  1  1  0  0  0  0
 10  5  1  0  0  0  0
 12 18  1  0  0  0  0
 13 14  1  0  0  0  0
 13 12  2  0  0  0  0
 14 16  2  0  0  0  0
 15 14  1  0  0  0  0
 16  1  1  0  0  0  0
 16 17  1  0  0  0  0
 18 17  2  0  0  0  0
 18 21  1  0  0  0  0
 19 20  1  0  0  0  0
 20 12  1  0  0  0  0
 21 22  1  0  0  0  0
 23 24  1  0  0  0  0
 25 23  1  0  0  0  0
M  END
>  <MODEL>
4

>  <REMARK>
 VINA RESULT:    -7.292      4.205      7.212
 INTER + INTRA:          -9.166
 INTER:                  -8.726
 INTRA:                  -0.440
 UNBOUND:                -0.383
  Name = 
  7 active torsions:
  status: ('A' for Active; 'I' for Inactive)
    1  A    between atoms: C_1  and  O_2
    2  A    between atoms: O_2  and  C_3
    3  A    between atoms: C_5  and  C_6
    4  A    between atoms: C_7  and  N_8
    5  A    between atoms: C_14  and  N_15
    6  A    between atoms: C_18  and  O_19
    7  A    between atoms: O_19  and  C_20
                            x       y       z     vdW  Elec       q    Type
                         _______ _______ _______ _____ _____    ______ ____

>  <TORSDO>
F 4

$$$$
=
 OpenBabel11202509283D

 25 26  0  0  0  0  0  0  0  0999 V2000
    9.0010   -1.1800    3.8530 N   0  0  0  0  0  0  0  0  0  0  0  0
    8.8950   -2.3610    4.6380 C   0  0  0  0  0  0  0  0  0  0  0  0
    7.6930   -2.8670    4.9560 N   0  0  0  0  0  0  0  0  0  0  0  0
    7.6700   -3.9650    5.7080 C   0  0  0  0  0  0  0  0  0  0  0  0
    6.4320   -4.4750    6.0460 N   0  0  0  0  0  0  0  0  0  0  0  0
    8.7460   -4.5880    6.1920 N   0  0  0  0  0  0  0  0  0  0  0  0
    9.9310   -4.0730    5.8590 C   0  0  0  0  0  0  0  0  0  0  0  0
   10.0620   -2.9460    5.0820 C   0  0  0  0  0  3  0  0  0  0  0  0
    9.9010   -0.8800    3.5880 H   0  0  0  0  0  0  0  0  0  0  0  0
    5.6140   -4.0440    5.7090 H   0  0  0  0  0  0  0  0  0  0  0  0
    6.3670   -5.2690    6.6250 H   0  0  0  0  0  0  0  0  0  0  0  0
    5.5970    1.0240    2.6060 C   0  0  0  0  0  0  0  0  0  0  0  0
    6.5320    1.6080    3.4680 C   0  0  0  0  0  3  0  0  0  0  0  0
    7.6830    0.9100    3.8760 C   0  0  0  0  0  0  0  0  0  0  0  0
    8.6490    1.5990    4.8030 C   0  0  0  0  0  1  0  0  0  0  0  0
    7.8900   -0.4060    3.4250 C   0  0  0  0  0  0  0  0  0  0  0  0
    6.9440   -0.9920    2.5650 C   0  0  0  0  0  3  0  0  0  0  0  0
    5.8060   -0.2900    2.1510 C   0  0  0  0  0  0  0  0  0  0  0  0
    3.4950    2.0360    3.1230 C   0  0  0  0  0  1  0  0  0  0  0  0
    4.4590    1.6460    2.1560 O   0  0  0  0  0  0  0  0  0  0  0  0
    4.8450   -0.7950    1.3090 O   0  0  0  0  0  0  0  0  0  0  0  0
    5.2710   -1.3050    0.0540 C   0  0  0  0  0  1  0  0  0  0  0  0
   11.0590   -4.7100    6.3770 N   0  0  0  0  0  0  0  0  0  0  0  0
   11.3290   -5.5920    6.0300 H   0  0  0  0  0  0  0  0  0  0  0  0
   11.5840   -4.2800    7.0900 H   0  0  0  0  0  0  0  0  0  0  0  0
  1  2  1  0  0  0  0
  2  3  1  0  0  0  0
  2  8  2  0  0  0  0
  3  4  2  0  0  0  0
  4  5  1  0  0  0  0
  4  6  1  0  0  0  0
  5 11  1  0  0  0  0
  7  6  2  0  0  0  0
  7 23  1  0  0  0  0
  8  7  1  0  0  0  0
  9  1  1  0  0  0  0
 10  5  1  0  0  0  0
 12 13  1  0  0  0  0
 13 14  2  0  0  0  0
 14 15  1  0  0  0  0
 16  1  1  0  0  0  0
 16 14  1  0  0  0  0
 17 16  2  0  0  0  0
 18 17  1  0  0  0  0
 18 12  2  0  0  0  0
 20 12  1  0  0  0  0
 20 19  1  0  0  0  0
 21 18  1  0  0  0  0
 22 21  1  0  0  0  0
 23 25  1  0  0  0  0
 24 23  1  0  0  0  0
M  END
>  <MODEL>
5

>  <REMARK>
 VINA RESULT:    -7.146      4.596      7.793
 INTER + INTRA:          -8.991
 INTER:                  -8.713
 INTRA:                  -0.277
 UNBOUND:                -0.383
  Name = 
  7 active torsions:
  status: ('A' for Active; 'I' for Inactive)
    1  A    between atoms: C_1  and  O_2
    2  A    between atoms: O_2  and  C_3
    3  A    between atoms: C_5  and  C_6
    4  A    between atoms: C_7  and  N_8
    5  A    between atoms: C_14  and  N_15
    6  A    between atoms: C_18  and  O_19
    7  A    between atoms: O_19  and  C_20
                            x       y       z     vdW  Elec       q    Type
                         _______ _______ _______ _____ _____    ______ ____

>  <TORSDO>
F 4

$$$$
=
 OpenBabel11202509283D

 25 26  0  0  0  0  0  0  0  0999 V2000
    5.1610   -1.3040    1.8530 N   0  0  0  0  0  0  0  0  0  0  0  0
    6.2110   -1.8840    2.6160 C   0  0  0  0  0  0  0  0  0  0  0  0
    7.2910   -1.1640    2.9540 N   0  0  0  0  0  0  0  0  0  0  0  0
    8.2430   -1.7780    3.6550 C   0  0  0  0  0  0  0  0  0  0  0  0
    9.3600   -1.0380    3.9880 N   0  0  0  0  0  0  0  0  0  0  0  0
    8.2180   -3.0590    4.0260 N   0  0  0  0  0  0  0  0  0  0  0  0
    7.1310   -3.7560    3.6860 C   0  0  0  0  0  0  0  0  0  0  0  0
    6.0920   -3.2130    2.9690 C   0  0  0  0  0  3  0  0  0  0  0  0
    4.3570   -1.8480    1.6830 H   0  0  0  0  0  0  0  0  0  0  0  0
    9.4160   -0.0900    3.7320 H   0  0  0  0  0  0  0  0  0  0  0  0
   10.1010   -1.4600    4.4810 H   0  0  0  0  0  0  0  0  0  0  0  0
    5.3080    2.6750    0.3890 C   0  0  0  0  0  0  0  0  0  0  0  0
    5.9320    1.6450   -0.3210 C   0  0  0  0  0  3  0  0  0  0  0  0
    5.8770    0.3120    0.1260 C   0  0  0  0  0  0  0  0  0  0  0  0
    6.5700   -0.7480   -0.6880 C   0  0  0  0  0  1  0  0  0  0  0  0
    5.1970    0.0120    1.3200 C   0  0  0  0  0  0  0  0  0  0  0  0
    4.5770    1.0520    2.0350 C   0  0  0  0  0  3  0  0  0  0  0  0
    4.6240    2.3750    1.5810 C   0  0  0  0  0  0  0  0  0  0  0  0
    4.5420    4.3520   -1.1310 C   0  0  0  0  0  1  0  0  0  0  0  0
    5.3090    3.9950    0.0080 O   0  0  0  0  0  0  0  0  0  0  0  0
    4.0360    3.4380    2.2220 O   0  0  0  0  0  0  0  0  0  0  0  0
    3.2570    3.1620    3.3760 C   0  0  0  0  0  1  0  0  0  0  0  0
    7.1100   -5.1010    4.0570 N   0  0  0  0  0  0  0  0  0  0  0  0
    6.2950   -5.6370    3.9190 H   0  0  0  0  0  0  0  0  0  0  0  0
    7.9090   -5.5140    4.4560 H   0  0  0  0  0  0  0  0  0  0  0  0
  1  2  1  0  0  0  0
  2  3  1  0  0  0  0
  2  8  2  0  0  0  0
  3  4  2  0  0  0  0
  4  5  1  0  0  0  0
  4  6  1  0  0  0  0
  5 11  1  0  0  0  0
  7  6  2  0  0  0  0
  7 23  1  0  0  0  0
  8  7  1  0  0  0  0
  9  1  1  0  0  0  0
 10  5  1  0  0  0  0
 12 18  1  0  0  0  0
 13 14  1  0  0  0  0
 13 12  2  0  0  0  0
 14 16  2  0  0  0  0
 15 14  1  0  0  0  0
 16  1  1  0  0  0  0
 16 17  1  0  0  0  0
 18 17  2  0  0  0  0
 18 21  1  0  0  0  0
 19 20  1  0  0  0  0
 20 12  1  0  0  0  0
 21 22  1  0  0  0  0
 23 25  1  0  0  0  0
 24 23  1  0  0  0  0
M  END
>  <MODEL>
6

>  <REMARK>
 VINA RESULT:    -7.141      3.511      6.099
 INTER + INTRA:          -8.984
 INTER:                  -8.530
 INTRA:                  -0.454
 UNBOUND:                -0.383
  Name = 
  7 active torsions:
  status: ('A' for Active; 'I' for Inactive)
    1  A    between atoms: C_1  and  O_2
    2  A    between atoms: O_2  and  C_3
    3  A    between atoms: C_5  and  C_6
    4  A    between atoms: C_7  and  N_8
    5  A    between atoms: C_14  and  N_15
    6  A    between atoms: C_18  and  O_19
    7  A    between atoms: O_19  and  C_20
                            x       y       z     vdW  Elec       q    Type
                         _______ _______ _______ _____ _____    ______ ____

>  <TORSDO>
F 4

$$$$
=
 OpenBabel11202509283D

 25 26  0  0  0  0  0  0  0  0999 V2000
    3.1700    6.0770    4.0660 N   0  0  0  0  0  0  0  0  0  0  0  0
    3.2280    4.9820    3.1600 C   0  0  0  0  0  0  0  0  0  0  0  0
    3.7310    5.1400    1.9260 N   0  0  0  0  0  0  0  0  0  0  0  0
    3.7380    4.0750    1.1260 C   0  0  0  0  0  0  0  0  0  0  0  0
    4.2420    4.2440   -0.1480 N   0  0  0  0  0  0  0  0  0  0  0  0
    3.2610    2.8710    1.4460 N   0  0  0  0  0  0  0  0  0  0  0  0
    2.7710    2.7330    2.6800 C   0  0  0  0  0  0  0  0  0  0  0  0
    2.7250    3.7690    3.5830 C   0  0  0  0  0  3  0  0  0  0  0  0
    2.8540    5.9020    4.9830 H   0  0  0  0  0  0  0  0  0  0  0  0
    4.6030    5.1170   -0.4220 H   0  0  0  0  0  0  0  0  0  0  0  0
    4.2400    3.4910   -0.7830 H   0  0  0  0  0  0  0  0  0  0  0  0
    4.1520   10.0940    3.1220 C   0  0  0  0  0  0  0  0  0  0  0  0
    5.0800    9.2840    3.7840 C   0  0  0  0  0  3  0  0  0  0  0  0
    4.7920    7.9410    4.0860 C   0  0  0  0  0  0  0  0  0  0  0  0
    5.8370    7.1250    4.7990 C   0  0  0  0  0  1  0  0  0  0  0  0
    3.5400    7.4060    3.7320 C   0  0  0  0  0  0  0  0  0  0  0  0
    2.6070    8.2260    3.0730 C   0  0  0  0  0  3  0  0  0  0  0  0
    2.9020    9.5590    2.7630 C   0  0  0  0  0  0  0  0  0  0  0  0
    5.6400   11.9630    3.0760 C   0  0  0  0  0  1  0  0  0  0  0  0
    4.3670   11.4080    2.7840 O   0  0  0  0  0  0  0  0  0  0  0  0
    2.0430   10.4150    2.1170 O   0  0  0  0  0  0  0  0  0  0  0  0
    0.6500   10.1970    2.2790 C   0  0  0  0  0  1  0  0  0  0  0  0
    2.2550    1.4800    3.0120 N   0  0  0  0  0  0  0  0  0  0  0  0
    2.1420    1.2290    3.9580 H   0  0  0  0  0  0  0  0  0  0  0  0
    2.0040    0.8470    2.3020 H   0  0  0  0  0  0  0  0  0  0  0  0
  1  9  1  0  0  0  0
  2  8  2  0  0  0  0
  2  1  1  0  0  0  0
  3  2  1  0  0  0  0
  4  6  1  0  0  0  0
  4  3  2  0  0  0  0
  5  4  1  0  0  0  0
  6  7  2  0  0  0  0
  7 23  1  0  0  0  0
  7  8  1  0  0  0  0
 10  5  1  0  0  0  0
 11  5  1  0  0  0  0
 12 13  1  0  0  0  0
 13 14  2  0  0  0  0
 14 15  1  0  0  0  0
 16  1  1  0  0  0  0
 16 14  1  0  0  0  0
 17 16  2  0  0  0  0
 18 17  1  0  0  0  0
 18 12  2  0  0  0  0
 20 19  1  0  0  0  0
 20 12  1  0  0  0  0
 21 22  1  0  0  0  0
 21 18  1  0  0  0  0
 23 24  1  0  0  0  0
 25 23  1  0  0  0  0
M  END
>  <MODEL>
7

>  <REMARK>
 VINA RESULT:    -7.100      6.119      8.323
 INTER + INTRA:          -8.935
 INTER:                  -8.428
 INTRA:                  -0.508
 UNBOUND:                -0.383
  Name = 
  7 active torsions:
  status: ('A' for Active; 'I' for Inactive)
    1  A    between atoms: C_1  and  O_2
    2  A    between atoms: O_2  and  C_3
    3  A    between atoms: C_5  and  C_6
    4  A    between atoms: C_7  and  N_8
    5  A    between atoms: C_14  and  N_15
    6  A    between atoms: C_18  and  O_19
    7  A    between atoms: O_19  and  C_20
                            x       y       z     vdW  Elec       q    Type
                         _______ _______ _______ _____ _____    ______ ____

>  <TORSDO>
F 4

$$$$
=
 OpenBabel11202509283D

 25 26  0  0  0  0  0  0  0  0999 V2000
    7.2320   -1.9530    2.3050 N   0  0  0  0  0  0  0  0  0  0  0  0
    6.3370   -0.9350    1.8770 C   0  0  0  0  0  0  0  0  0  0  0  0
    5.7190   -0.1460    2.7700 N   0  0  0  0  0  0  0  0  0  0  0  0
    4.8820    0.7760    2.2970 C   0  0  0  0  0  0  0  0  0  0  0  0
    4.2360    1.5760    3.2190 N   0  0  0  0  0  0  0  0  0  0  0  0
    4.5890    0.9600    1.0090 N   0  0  0  0  0  0  0  0  0  0  0  0
    5.2190    0.1690    0.1370 C   0  0  0  0  0  0  0  0  0  0  0  0
    6.1060   -0.8070    0.5230 C   0  0  0  0  0  3  0  0  0  0  0  0
    7.7130   -2.4660    1.6150 H   0  0  0  0  0  0  0  0  0  0  0  0
    4.4250    1.4700    4.1790 H   0  0  0  0  0  0  0  0  0  0  0  0
    3.5860    2.2510    2.9160 H   0  0  0  0  0  0  0  0  0  0  0  0
    7.9820   -3.0590    6.3310 C   0  0  0  0  0  0  0  0  0  0  0  0
    8.6190   -1.9410    5.7820 C   0  0  0  0  0  3  0  0  0  0  0  0
    8.3690   -1.5350    4.4590 C   0  0  0  0  0  0  0  0  0  0  0  0
    9.0870   -0.3220    3.9320 C   0  0  0  0  0  1  0  0  0  0  0  0
    7.4760   -2.2780    3.6650 C   0  0  0  0  0  0  0  0  0  0  0  0
    6.8430   -3.4050    4.2190 C   0  0  0  0  0  3  0  0  0  0  0  0
    7.0850   -3.7990    5.5410 C   0  0  0  0  0  0  0  0  0  0  0  0
    9.3450   -4.2460    7.8940 C   0  0  0  0  0  1  0  0  0  0  0  0
    8.1660   -3.5060    7.6170 O   0  0  0  0  0  0  0  0  0  0  0  0
    6.4990   -4.8830    6.1480 O   0  0  0  0  0  0  0  0  0  0  0  0
    6.8580   -6.1740    5.6800 C   0  0  0  0  0  1  0  0  0  0  0  0
    4.9030    0.3470   -1.2100 N   0  0  0  0  0  0  0  0  0  0  0  0
    3.9850    0.1810   -1.5260 H   0  0  0  0  0  0  0  0  0  0  0  0
    5.5960    0.6390   -1.8450 H   0  0  0  0  0  0  0  0  0  0  0  0
  1 16  1  0  0  0  0
  2  1  1  0  0  0  0
  2  3  1  0  0  0  0
  4  3  2  0  0  0  0
  4  5  1  0  0  0  0
  5 10  1  0  0  0  0
  6  4  1  0  0  0  0
  7  8  1  0  0  0  0
  7  6  2  0  0  0  0
  8  2  2  0  0  0  0
  9  1  1  0  0  0  0
 11  5  1  0  0  0  0
 12 20  1  0  0  0  0
 13 12  1  0  0  0  0
 14 13  2  0  0  0  0
 15 14  1  0  0  0  0
 16 17  2  0  0  0  0
 16 14  1  0  0  0  0
 17 18  1  0  0  0  0
 18 21  1  0  0  0  0
 18 12  2  0  0  0  0
 20 19  1  0  0  0  0
 22 21  1  0  0  0  0
 23  7  1  0  0  0  0
 24 23  1  0  0  0  0
 25 23  1  0  0  0  0
M  END
>  <MODEL>
8

>  <REMARK>
 VINA RESULT:    -7.032      2.931      4.873
 INTER + INTRA:          -8.853
 INTER:                  -8.461
 INTRA:                  -0.392
 UNBOUND:                -0.383
  Name = 
  7 active torsions:
  status: ('A' for Active; 'I' for Inactive)
    1  A    between atoms: C_1  and  O_2
    2  A    between atoms: O_2  and  C_3
    3  A    between atoms: C_5  and  C_6
    4  A    between atoms: C_7  and  N_8
    5  A    between atoms: C_14  and  N_15
    6  A    between atoms: C_18  and  O_19
    7  A    between atoms: O_19  and  C_20
                            x       y       z     vdW  Elec       q    Type
                         _______ _______ _______ _____ _____    ______ ____

>  <TORSDO>
F 4

$$$$
=
 OpenBabel11202509283D

 25 26  0  0  0  0  0  0  0  0999 V2000
    5.9700    0.0710    3.1900 N   0  0  0  0  0  0  0  0  0  0  0  0
    6.4660    1.3190    3.6560 C   0  0  0  0  0  0  0  0  0  0  0  0
    7.5540    1.3750    4.4390 N   0  0  0  0  0  0  0  0  0  0  0  0
    7.9510    2.5770    4.8520 C   0  0  0  0  0  0  0  0  0  0  0  0
    9.0620    2.6300    5.6710 N   0  0  0  0  0  0  0  0  0  0  0  0
    7.3370    3.7280    4.5710 N   0  0  0  0  0  0  0  0  0  0  0  0
    6.2610    3.6510    3.7850 C   0  0  0  0  0  0  0  0  0  0  0  0
    5.7750    2.4600    3.3020 C   0  0  0  0  0  3  0  0  0  0  0  0
    5.2080    0.0800    2.5650 H   0  0  0  0  0  0  0  0  0  0  0  0
    9.5420    1.8030    5.9020 H   0  0  0  0  0  0  0  0  0  0  0  0
    9.3740    3.4950    6.0230 H   0  0  0  0  0  0  0  0  0  0  0  0
    7.4700   -3.7010    4.4210 C   0  0  0  0  0  0  0  0  0  0  0  0
    7.2190   -3.4560    3.0660 C   0  0  0  0  0  3  0  0  0  0  0  0
    6.7460   -2.2070    2.6270 C   0  0  0  0  0  0  0  0  0  0  0  0
    6.4990   -2.0100    1.1550 C   0  0  0  0  0  1  0  0  0  0  0  0
    6.5040   -1.1890    3.5670 C   0  0  0  0  0  0  0  0  0  0  0  0
    6.7520   -1.4420    4.9280 C   0  0  0  0  0  3  0  0  0  0  0  0
    7.2330   -2.6840    5.3610 C   0  0  0  0  0  0  0  0  0  0  0  0
    7.0240   -5.9650    5.0420 C   0  0  0  0  0  1  0  0  0  0  0  0
    7.9420   -4.8900    4.9210 O   0  0  0  0  0  0  0  0  0  0  0  0
    7.5020   -2.9990    6.6710 O   0  0  0  0  0  0  0  0  0  0  0  0
    8.7710   -2.6290    7.1900 C   0  0  0  0  0  1  0  0  0  0  0  0
    5.6060    4.8500    3.5030 N   0  0  0  0  0  0  0  0  0  0  0  0
    5.0580    4.9320    2.6880 H   0  0  0  0  0  0  0  0  0  0  0  0
    5.6910    5.6150    4.1170 H   0  0  0  0  0  0  0  0  0  0  0  0
  1 16  1  0  0  0  0
  1  2  1  0  0  0  0
  2  3  1  0  0  0  0
  3  4  2  0  0  0  0
  4  5  1  0  0  0  0
  5 10  1  0  0  0  0
  5 11  1  0  0  0  0
  6  4  1  0  0  0  0
  7  6  2  0  0  0  0
  8  2  2  0  0  0  0
  8  7  1  0  0  0  0
  9  1  1  0  0  0  0
 12 20  1  0  0  0  0
 12 18  1  0  0  0  0
 13 12  2  0  0  0  0
 14 13  1  0  0  0  0
 14 16  2  0  0  0  0
 15 14  1  0  0  0  0
 16 17  1  0  0  0  0
 17 18  2  0  0  0  0
 18 21  1  0  0  0  0
 20 19  1  0  0  0  0
 21 22  1  0  0  0  0
 23  7  1  0  0  0  0
 23 25  1  0  0  0  0
 24 23  1  0  0  0  0
M  END
>  <MODEL>
9

>  <REMARK>
 VINA RESULT:    -6.978      3.983      5.189
 INTER + INTRA:          -8.789
 INTER:                  -8.813
 INTRA:                   0.024
 UNBOUND:                -0.383
  Name = 
  7 active torsions:
  status: ('A' for Active; 'I' for Inactive)
    1  A    between atoms: C_1  and  O_2
    2  A    between atoms: O_2  and  C_3
    3  A    between atoms: C_5  and  C_6
    4  A    between atoms: C_7  and  N_8
    5  A    between atoms: C_14  and  N_15
    6  A    between atoms: C_18  and  O_19
    7  A    between atoms: O_19  and  C_20
                            x       y       z     vdW  Elec       q    Type
                         _______ _______ _______ _____ _____    ______ ____

>  <TORSDO>
F 4

$$$$
