=
 OpenBabel11202510543D

 25 26  0  0  0  0  0  0  0  0999 V2000
    4.4270    0.2780    0.4500 N   0  0  0  0  0  0  0  0  0  0  0  0
    4.7080    1.2540   -0.5460 C   0  0  0  0  0  0  0  0  0  0  0  0
    5.8670    1.9300   -0.5350 N   0  0  0  0  0  0  0  0  0  0  0  0
    6.0540    2.8410   -1.4880 C   0  0  0  0  0  0  0  0  0  0  0  0
    7.2420    3.5450   -1.4660 N   0  0  0  0  0  0  0  0  0  0  0  0
    5.1700    3.1530   -2.4370 N   0  0  0  0  0  0  0  0  0  0  0  0
    4.0260    2.4650   -2.4340 C   0  0  0  0  0  0  0  0  0  0  0  0
    3.7400    1.5010   -1.4970 C   0  0  0  0  0  3  0  0  0  0  0  0
    3.5930   -0.2400    0.3670 H   0  0  0  0  0  0  0  0  0  0  0  0
    7.9190    3.3440   -0.7810 H   0  0  0  0  0  0  0  0  0  0  0  0
    7.4100    4.2490   -2.1350 H   0  0  0  0  0  0  0  0  0  0  0  0
    6.8570   -0.4940    3.8400 C   0  0  0  0  0  0  0  0  0  0  0  0
    6.6790   -1.4830    2.8670 C   0  0  0  0  0  3  0  0  0  0  0  0
    5.9010   -1.2450    1.7190 C   0  0  0  0  0  0  0  0  0  0  0  0
    5.7530   -2.3530    0.7110 C   0  0  0  0  0  1  0  0  0  0  0  0
    5.2730    0.0030    1.5560 C   0  0  0  0  0  0  0  0  0  0  0  0
    5.4490    0.9920    2.5400 C   0  0  0  0  0  3  0  0  0  0  0  0
    6.2340    0.7560    3.6750 C   0  0  0  0  0  0  0  0  0  0  0  0
    9.0090   -0.8340    4.8220 C   0  0  0  0  0  1  0  0  0  0  0  0
    7.6100   -0.6480    4.9780 O   0  0  0  0  0  0  0  0  0  0  0  0
    6.4540    1.6760    4.6720 O   0  0  0  0  0  0  0  0  0  0  0  0
    7.0590    2.9080    4.3090 C   0  0  0  0  0  1  0  0  0  0  0  0
    3.0920    2.8010   -3.4140 N   0  0  0  0  0  0  0  0  0  0  0  0
    2.6210    2.0910   -3.9090 H   0  0  0  0  0  0  0  0  0  0  0  0
    2.9020    3.7460   -3.6110 H   0  0  0  0  0  0  0  0  0  0  0  0
  1 16  1  0  0  0  0
  2  3  1  0  0  0  0
  2  1  1  0  0  0  0
  4  5  1  0  0  0  0
  4  3  2  0  0  0  0
  5 10  1  0  0  0  0
  6  7  2  0  0  0  0
  6  4  1  0  0  0  0
  7  8  1  0  0  0  0
  8  2  2  0  0  0  0
  9  1  1  0  0  0  0
 11  5  1  0  0  0  0
 12 20  1  0  0  0  0
 13 12  2  0  0  0  0
 14 13  1  0  0  0  0
 15 14  1  0  0  0  0
 16 14  2  0  0  0  0
 16 17  1  0  0  0  0
 17 18  2  0  0  0  0
 18 12  1  0  0  0  0
 18 21  1  0  0  0  0
 19 20  1  0  0  0  0
 22 21  1  0  0  0  0
 23  7  1  0  0  0  0
 24 23  1  0  0  0  0
 25 23  1  0  0  0  0
M  END
>  <MODEL>
1

>  <REMARK>
 VINA RESULT:    -7.778      0.000      0.000
 INTER + INTRA:          -9.755
 INTER:                  -9.369
 INTRA:                  -0.385
 UNBOUND:                -0.385
  Name = 
  7 active torsions:
  status: ('A' for Active; 'I' for Inactive)
    1  A    between atoms: C_1  and  O_2
    2  A    between atoms: O_2  and  C_3
    3  A    between atoms: C_5  and  C_6
    4  A    between atoms: C_7  and  N_8
    5  A    between atoms: C_14  and  N_15
    6  A    between atoms: C_18  and  O_19
    7  A    between atoms: O_19  and  C_20
                            x       y       z     vdW  Elec       q    Type
                         _______ _______ _______ _____ _____    ______ ____

>  <TORSDO>
F 4

$$$$
=
 OpenBabel11202510543D

 25 26  0  0  0  0  0  0  0  0999 V2000
    6.6240    0.5080    0.6660 N   0  0  0  0  0  0  0  0  0  0  0  0
    5.6420    1.5350    0.5980 C   0  0  0  0  0  0  0  0  0  0  0  0
    4.6590    1.6040    1.5090 N   0  0  0  0  0  0  0  0  0  0  0  0
    3.7650    2.5810    1.3720 C   0  0  0  0  0  0  0  0  0  0  0  0
    2.7460    2.6410    2.3020 N   0  0  0  0  0  0  0  0  0  0  0  0
    3.7550    3.4820    0.3880 N   0  0  0  0  0  0  0  0  0  0  0  0
    4.7450    3.3990   -0.5030 C   0  0  0  0  0  0  0  0  0  0  0  0
    5.7190    2.4320   -0.4480 C   0  0  0  0  0  3  0  0  0  0  0  0
    7.3640    0.5330    0.0160 H   0  0  0  0  0  0  0  0  0  0  0  0
    2.7190    1.9940    3.0440 H   0  0  0  0  0  0  0  0  0  0  0  0
    2.0460    3.3300    2.2240 H   0  0  0  0  0  0  0  0  0  0  0  0
    6.5160   -2.5640    3.5880 C   0  0  0  0  0  0  0  0  0  0  0  0
    5.9880   -2.7930    2.3130 C   0  0  0  0  0  3  0  0  0  0  0  0
    6.0340   -1.8020    1.3160 C   0  0  0  0  0  0  0  0  0  0  0  0
    5.4500   -2.1150   -0.0350 C   0  0  0  0  0  1  0  0  0  0  0  0
    6.6050   -0.5500    1.6110 C   0  0  0  0  0  0  0  0  0  0  0  0
    7.1270   -0.3220    2.8970 C   0  0  0  0  0  3  0  0  0  0  0  0
    7.0900   -1.3150    3.8830 C   0  0  0  0  0  0  0  0  0  0  0  0
    7.2980   -4.6590    4.4320 C   0  0  0  0  0  1  0  0  0  0  0  0
    6.5170   -3.4860    4.6060 O   0  0  0  0  0  0  0  0  0  0  0  0
    7.5860   -1.1660    5.1560 O   0  0  0  0  0  0  0  0  0  0  0  0
    8.9940   -1.0640    5.3060 C   0  0  0  0  0  1  0  0  0  0  0  0
    4.7270    4.3280   -1.5440 N   0  0  0  0  0  0  0  0  0  0  0  0
    4.2390    4.1270   -2.3760 H   0  0  0  0  0  0  0  0  0  0  0  0
    5.2030    5.1850   -1.4480 H   0  0  0  0  0  0  0  0  0  0  0  0
  1 16  1  0  0  0  0
  2  1  1  0  0  0  0
  2  3  1  0  0  0  0
  4  3  2  0  0  0  0
  4  5  1  0  0  0  0
  5 10  1  0  0  0  0
  6  4  1  0  0  0  0
  7  8  1  0  0  0  0
  7  6  2  0  0  0  0
  8  2  2  0  0  0  0
  9  1  1  0  0  0  0
 11  5  1  0  0  0  0
 12 18  1  0  0  0  0
 12 20  1  0  0  0  0
 13 12  2  0  0  0  0
 14 16  2  0  0  0  0
 14 13  1  0  0  0  0
 15 14  1  0  0  0  0
 16 17  1  0  0  0  0
 17 18  2  0  0  0  0
 18 21  1  0  0  0  0
 19 20  1  0  0  0  0
 21 22  1  0  0  0  0
 23 25  1  0  0  0  0
 23  7  1  0  0  0  0
 24 23  1  0  0  0  0
M  END
>  <MODEL>
2

>  <REMARK>
 VINA RESULT:    -7.669      1.919      2.902
 INTER + INTRA:          -9.624
 INTER:                  -9.110
 INTRA:                  -0.514
 UNBOUND:                -0.385
  Name = 
  7 active torsions:
  status: ('A' for Active; 'I' for Inactive)
    1  A    between atoms: C_1  and  O_2
    2  A    between atoms: O_2  and  C_3
    3  A    between atoms: C_5  and  C_6
    4  A    between atoms: C_7  and  N_8
    5  A    between atoms: C_14  and  N_15
    6  A    between atoms: C_18  and  O_19
    7  A    between atoms: O_19  and  C_20
                            x       y       z     vdW  Elec       q    Type
                         _______ _______ _______ _____ _____    ______ ____

>  <TORSDO>
F 4

$$$$
=
 OpenBabel11202510543D

 25 26  0  0  0  0  0  0  0  0999 V2000
    3.4930    3.7970    2.7590 N   0  0  0  0  0  0  0  0  0  0  0  0
    3.7550    3.3440    1.4360 C   0  0  0  0  0  0  0  0  0  0  0  0
    4.5120    4.0720    0.6000 N   0  0  0  0  0  0  0  0  0  0  0  0
    4.7010    3.5950   -0.6290 C   0  0  0  0  0  0  0  0  0  0  0  0
    5.4670    4.3540   -1.4910 N   0  0  0  0  0  0  0  0  0  0  0  0
    4.1760    2.4630   -1.1020 N   0  0  0  0  0  0  0  0  0  0  0  0
    3.4330    1.7510   -0.2530 C   0  0  0  0  0  0  0  0  0  0  0  0
    3.1830    2.1540    1.0370 C   0  0  0  0  0  3  0  0  0  0  0  0
    2.9880    3.2010    3.3590 H   0  0  0  0  0  0  0  0  0  0  0  0
    5.8710    5.1950   -1.1790 H   0  0  0  0  0  0  0  0  0  0  0  0
    5.6090    4.0530   -2.4190 H   0  0  0  0  0  0  0  0  0  0  0  0
    4.6230    7.5690    4.3350 C   0  0  0  0  0  0  0  0  0  0  0  0
    5.4420    6.4530    4.5370 C   0  0  0  0  0  3  0  0  0  0  0  0
    5.1060    5.1950    4.0030 C   0  0  0  0  0  0  0  0  0  0  0  0
    6.0330    4.0370    4.2560 C   0  0  0  0  0  1  0  0  0  0  0  0
    3.9140    5.0530    3.2680 C   0  0  0  0  0  0  0  0  0  0  0  0
    3.0910    6.1760    3.0740 C   0  0  0  0  0  3  0  0  0  0  0  0
    3.4350    7.4280    3.5970 C   0  0  0  0  0  0  0  0  0  0  0  0
    5.9010    9.5800    4.1600 C   0  0  0  0  0  1  0  0  0  0  0  0
    4.8920    8.8270    4.8150 O   0  0  0  0  0  0  0  0  0  0  0  0
    2.6830    8.5680    3.4420 O   0  0  0  0  0  0  0  0  0  0  0  0
    2.1970    8.8650    2.1420 C   0  0  0  0  0  1  0  0  0  0  0  0
    2.8680    0.5760   -0.7500 N   0  0  0  0  0  0  0  0  0  0  0  0
    3.3120   -0.2890   -0.5910 H   0  0  0  0  0  0  0  0  0  0  0  0
    2.0270    0.6110   -1.2600 H   0  0  0  0  0  0  0  0  0  0  0  0
  1 16  1  0  0  0  0
  1  9  1  0  0  0  0
  2  1  1  0  0  0  0
  3  2  1  0  0  0  0
  4  3  2  0  0  0  0
  5 10  1  0  0  0  0
  5  4  1  0  0  0  0
  6  4  1  0  0  0  0
  6  7  2  0  0  0  0
  7  8  1  0  0  0  0
  8  2  2  0  0  0  0
 11  5  1  0  0  0  0
 12 13  1  0  0  0  0
 12 20  1  0  0  0  0
 14 15  1  0  0  0  0
 14 13  2  0  0  0  0
 16 14  1  0  0  0  0
 17 16  2  0  0  0  0
 17 18  1  0  0  0  0
 18 12  2  0  0  0  0
 19 20  1  0  0  0  0
 21 18  1  0  0  0  0
 22 21  1  0  0  0  0
 23 24  1  0  0  0  0
 23  7  1  0  0  0  0
 25 23  1  0  0  0  0
M  END
>  <MODEL>
3

>  <REMARK>
 VINA RESULT:    -7.661      4.550      6.193
 INTER + INTRA:          -9.613
 INTER:                  -9.073
 INTRA:                  -0.541
 UNBOUND:                -0.385
  Name = 
  7 active torsions:
  status: ('A' for Active; 'I' for Inactive)
    1  A    between atoms: C_1  and  O_2
    2  A    between atoms: O_2  and  C_3
    3  A    between atoms: C_5  and  C_6
    4  A    between atoms: C_7  and  N_8
    5  A    between atoms: C_14  and  N_15
    6  A    between atoms: C_18  and  O_19
    7  A    between atoms: O_19  and  C_20
                            x       y       z     vdW  Elec       q    Type
                         _______ _______ _______ _____ _____    ______ ____

>  <TORSDO>
F 4

$$$$
=
 OpenBabel11202510543D

 25 26  0  0  0  0  0  0  0  0999 V2000
    5.1970   -0.5960    2.3210 N   0  0  0  0  0  0  0  0  0  0  0  0
    5.2660   -0.0890    0.9940 C   0  0  0  0  0  0  0  0  0  0  0  0
    6.4380   -0.0290    0.3430 N   0  0  0  0  0  0  0  0  0  0  0  0
    6.4290    0.4730   -0.8900 C   0  0  0  0  0  0  0  0  0  0  0  0
    7.6390    0.5470   -1.5520 N   0  0  0  0  0  0  0  0  0  0  0  0
    5.3520    0.9450   -1.5200 N   0  0  0  0  0  0  0  0  0  0  0  0
    4.1960    0.8710   -0.8580 C   0  0  0  0  0  0  0  0  0  0  0  0
    4.0980    0.3640    0.4160 C   0  0  0  0  0  3  0  0  0  0  0  0
    4.3080   -0.6820    2.7370 H   0  0  0  0  0  0  0  0  0  0  0  0
    8.4570    0.2090   -1.1210 H   0  0  0  0  0  0  0  0  0  0  0  0
    7.6840    0.9390   -2.4550 H   0  0  0  0  0  0  0  0  0  0  0  0
    8.5360   -1.6780    4.7030 C   0  0  0  0  0  0  0  0  0  0  0  0
    7.7740   -2.6690    4.0760 C   0  0  0  0  0  3  0  0  0  0  0  0
    6.6770   -2.3380    3.2590 C   0  0  0  0  0  0  0  0  0  0  0  0
    5.9010   -3.4540    2.6130 C   0  0  0  0  0  1  0  0  0  0  0  0
    6.3290   -0.9860    3.0830 C   0  0  0  0  0  0  0  0  0  0  0  0
    7.0940    0.0060    3.7210 C   0  0  0  0  0  3  0  0  0  0  0  0
    8.1920   -0.3260    4.5240 C   0  0  0  0  0  0  0  0  0  0  0  0
   10.1370   -3.2470    5.5310 C   0  0  0  0  0  1  0  0  0  0  0  0
    9.6250   -1.9240    5.5040 O   0  0  0  0  0  0  0  0  0  0  0  0
    8.9860    0.5890    5.1720 O   0  0  0  0  0  0  0  0  0  0  0  0
    8.7540    1.9650    4.9100 C   0  0  0  0  0  1  0  0  0  0  0  0
    3.0700    1.3800   -1.5060 N   0  0  0  0  0  0  0  0  0  0  0  0
    2.7830    0.9980   -2.3670 H   0  0  0  0  0  0  0  0  0  0  0  0
    2.5630    2.1220   -1.1030 H   0  0  0  0  0  0  0  0  0  0  0  0
  1  9  1  0  0  0  0
  1 16  1  0  0  0  0
  2  1  1  0  0  0  0
  3  2  1  0  0  0  0
  4  3  2  0  0  0  0
  5 10  1  0  0  0  0
  5  4  1  0  0  0  0
  6  4  1  0  0  0  0
  6  7  2  0  0  0  0
  7  8  1  0  0  0  0
  8  2  2  0  0  0  0
 11  5  1  0  0  0  0
 12 20  1  0  0  0  0
 13 12  2  0  0  0  0
 14 13  1  0  0  0  0
 15 14  1  0  0  0  0
 16 14  2  0  0  0  0
 16 17  1  0  0  0  0
 17 18  2  0  0  0  0
 18 12  1  0  0  0  0
 18 21  1  0  0  0  0
 20 19  1  0  0  0  0
 22 21  1  0  0  0  0
 23 25  1  0  0  0  0
 23  7  1  0  0  0  0
 24 23  1  0  0  0  0
M  END
>  <MODEL>
4

>  <REMARK>
 VINA RESULT:    -7.616      1.856      2.344
 INTER + INTRA:          -9.560
 INTER:                  -9.071
 INTRA:                  -0.488
 UNBOUND:                -0.385
  Name = 
  7 active torsions:
  status: ('A' for Active; 'I' for Inactive)
    1  A    between atoms: C_1  and  O_2
    2  A    between atoms: O_2  and  C_3
    3  A    between atoms: C_5  and  C_6
    4  A    between atoms: C_7  and  N_8
    5  A    between atoms: C_14  and  N_15
    6  A    between atoms: C_18  and  O_19
    7  A    between atoms: O_19  and  C_20
                            x       y       z     vdW  Elec       q    Type
                         _______ _______ _______ _____ _____    ______ ____

>  <TORSDO>
F 4

$$$$
=
 OpenBabel11202510543D

 25 26  0  0  0  0  0  0  0  0999 V2000
    4.1900    0.4290    0.6490 N   0  0  0  0  0  0  0  0  0  0  0  0
    4.5640    1.3080   -0.4050 C   0  0  0  0  0  0  0  0  0  0  0  0
    5.7850    1.8630   -0.4330 N   0  0  0  0  0  0  0  0  0  0  0  0
    6.0600    2.6890   -1.4410 C   0  0  0  0  0  0  0  0  0  0  0  0
    7.3120    3.2710   -1.4590 N   0  0  0  0  0  0  0  0  0  0  0  0
    5.2090    3.0280   -2.4110 N   0  0  0  0  0  0  0  0  0  0  0  0
    4.0020    2.4590   -2.3680 C   0  0  0  0  0  0  0  0  0  0  0  0
    3.6230    1.5890   -1.3740 C   0  0  0  0  0  3  0  0  0  0  0  0
    3.3080   -0.0070    0.5950 H   0  0  0  0  0  0  0  0  0  0  0  0
    7.9680    3.0470   -0.7600 H   0  0  0  0  0  0  0  0  0  0  0  0
    7.5480    3.9110   -2.1700 H   0  0  0  0  0  0  0  0  0  0  0  0
    6.7390   -0.4680    3.9190 C   0  0  0  0  0  0  0  0  0  0  0  0
    6.0160    0.7300    3.9030 C   0  0  0  0  0  3  0  0  0  0  0  0
    5.1430    1.0410    2.8450 C   0  0  0  0  0  0  0  0  0  0  0  0
    4.3940    2.3460    2.8920 C   0  0  0  0  0  1  0  0  0  0  0  0
    5.0080    0.1410    1.7730 C   0  0  0  0  0  0  0  0  0  0  0  0
    5.7420   -1.0580    1.7890 C   0  0  0  0  0  3  0  0  0  0  0  0
    6.6010   -1.3710    2.8490 C   0  0  0  0  0  0  0  0  0  0  0  0
    8.8980   -0.2740    4.9240 C   0  0  0  0  0  1  0  0  0  0  0  0
    7.5980   -0.8440    4.9210 O   0  0  0  0  0  0  0  0  0  0  0  0
    7.3420   -2.5240    2.9350 O   0  0  0  0  0  0  0  0  0  0  0  0
    6.6430   -3.7430    3.1360 C   0  0  0  0  0  1  0  0  0  0  0  0
    3.1030    2.8250   -3.3710 N   0  0  0  0  0  0  0  0  0  0  0  0
    2.6460    3.6960   -3.3290 H   0  0  0  0  0  0  0  0  0  0  0  0
    2.9260    2.2120   -4.1210 H   0  0  0  0  0  0  0  0  0  0  0  0
  1 16  1  0  0  0  0
  2  1  1  0  0  0  0
  3  2  1  0  0  0  0
  4  3  2  0  0  0  0
  5  4  1  0  0  0  0
  5 10  1  0  0  0  0
  6  7  2  0  0  0  0
  6  4  1  0  0  0  0
  7  8  1  0  0  0  0
  8  2  2  0  0  0  0
  9  1  1  0  0  0  0
 11  5  1  0  0  0  0
 12 20  1  0  0  0  0
 13 12  1  0  0  0  0
 14 15  1  0  0  0  0
 14 13  2  0  0  0  0
 16 17  2  0  0  0  0
 16 14  1  0  0  0  0
 17 18  1  0  0  0  0
 18 21  1  0  0  0  0
 18 12  2  0  0  0  0
 20 19  1  0  0  0  0
 21 22  1  0  0  0  0
 23 24  1  0  0  0  0
 23  7  1  0  0  0  0
 25 23  1  0  0  0  0
M  END
>  <MODEL>
5

>  <REMARK>
 VINA RESULT:    -7.525      0.944      2.454
 INTER + INTRA:          -9.451
 INTER:                  -9.074
 INTRA:                  -0.376
 UNBOUND:                -0.385
  Name = 
  7 active torsions:
  status: ('A' for Active; 'I' for Inactive)
    1  A    between atoms: C_1  and  O_2
    2  A    between atoms: O_2  and  C_3
    3  A    between atoms: C_5  and  C_6
    4  A    between atoms: C_7  and  N_8
    5  A    between atoms: C_14  and  N_15
    6  A    between atoms: C_18  and  O_19
    7  A    between atoms: O_19  and  C_20
                            x       y       z     vdW  Elec       q    Type
                         _______ _______ _______ _____ _____    ______ ____

>  <TORSDO>
F 4

$$$$
=
 OpenBabel11202510543D

 25 26  0  0  0  0  0  0  0  0999 V2000
    4.5230    3.1160    2.9510 N   0  0  0  0  0  0  0  0  0  0  0  0
    4.3730    2.9140    1.5510 C   0  0  0  0  0  0  0  0  0  0  0  0
    4.5640    3.9250    0.6890 N   0  0  0  0  0  0  0  0  0  0  0  0
    4.3900    3.6670   -0.6060 C   0  0  0  0  0  0  0  0  0  0  0  0
    4.5710    4.7130   -1.4890 N   0  0  0  0  0  0  0  0  0  0  0  0
    4.0160    2.4900   -1.1120 N   0  0  0  0  0  0  0  0  0  0  0  0
    3.8390    1.4970   -0.2380 C   0  0  0  0  0  0  0  0  0  0  0  0
    3.9990    1.6590    1.1170 C   0  0  0  0  0  3  0  0  0  0  0  0
    4.4380    2.3320    3.5420 H   0  0  0  0  0  0  0  0  0  0  0  0
    4.8470    5.5960   -1.1550 H   0  0  0  0  0  0  0  0  0  0  0  0
    4.4250    4.5750   -2.4540 H   0  0  0  0  0  0  0  0  0  0  0  0
    5.4150    6.9020    4.6430 C   0  0  0  0  0  0  0  0  0  0  0  0
    4.0870    6.5480    4.3810 C   0  0  0  0  0  3  0  0  0  0  0  0
    3.7600    5.2890    3.8450 C   0  0  0  0  0  0  0  0  0  0  0  0
    2.3110    4.9730    3.5880 C   0  0  0  0  0  1  0  0  0  0  0  0
    4.7880    4.3750    3.5500 C   0  0  0  0  0  0  0  0  0  0  0  0
    6.1220    4.7380    3.8090 C   0  0  0  0  0  3  0  0  0  0  0  0
    6.4430    5.9870    4.3530 C   0  0  0  0  0  0  0  0  0  0  0  0
    5.8270    9.2330    4.3150 C   0  0  0  0  0  1  0  0  0  0  0  0
    5.8090    8.1050    5.1760 O   0  0  0  0  0  0  0  0  0  0  0  0
    7.7200    6.4050    4.6380 O   0  0  0  0  0  0  0  0  0  0  0  0
    8.7040    5.4080    4.8680 C   0  0  0  0  0  1  0  0  0  0  0  0
    3.4310    0.2700   -0.7620 N   0  0  0  0  0  0  0  0  0  0  0  0
    2.8790    0.2410   -1.5770 H   0  0  0  0  0  0  0  0  0  0  0  0
    3.6950   -0.5680   -0.3170 H   0  0  0  0  0  0  0  0  0  0  0  0
  1  9  1  0  0  0  0
  1 16  1  0  0  0  0
  2  1  1  0  0  0  0
  3  2  1  0  0  0  0
  4  3  2  0  0  0  0
  5 10  1  0  0  0  0
  5  4  1  0  0  0  0
  6  4  1  0  0  0  0
  6  7  2  0  0  0  0
  7  8  1  0  0  0  0
  8  2  2  0  0  0  0
 11  5  1  0  0  0  0
 12 20  1  0  0  0  0
 13 12  1  0  0  0  0
 14 13  2  0  0  0  0
 15 14  1  0  0  0  0
 16 17  2  0  0  0  0
 16 14  1  0  0  0  0
 17 18  1  0  0  0  0
 18 21  1  0  0  0  0
 18 12  2  0  0  0  0
 19 20  1  0  0  0  0
 21 22  1  0  0  0  0
 23 25  1  0  0  0  0
 23  7  1  0  0  0  0
 24 23  1  0  0  0  0
M  END
>  <MODEL>
6

>  <REMARK>
 VINA RESULT:    -7.486      3.667      5.568
 INTER + INTRA:          -9.403
 INTER:                  -8.943
 INTRA:                  -0.460
 UNBOUND:                -0.385
  Name = 
  7 active torsions:
  status: ('A' for Active; 'I' for Inactive)
    1  A    between atoms: C_1  and  O_2
    2  A    between atoms: O_2  and  C_3
    3  A    between atoms: C_5  and  C_6
    4  A    between atoms: C_7  and  N_8
    5  A    between atoms: C_14  and  N_15
    6  A    between atoms: C_18  and  O_19
    7  A    between atoms: O_19  and  C_20
                            x       y       z     vdW  Elec       q    Type
                         _______ _______ _______ _____ _____    ______ ____

>  <TORSDO>
F 4

$$$$
=
 OpenBabel11202510543D

 25 26  0  0  0  0  0  0  0  0999 V2000
    5.2890    2.0470    2.5490 N   0  0  0  0  0  0  0  0  0  0  0  0
    5.6090    1.8700    1.1750 C   0  0  0  0  0  0  0  0  0  0  0  0
    5.4930    2.8880    0.3080 N   0  0  0  0  0  0  0  0  0  0  0  0
    5.7940    2.6450   -0.9670 C   0  0  0  0  0  0  0  0  0  0  0  0
    5.6590    3.6900   -1.8590 N   0  0  0  0  0  0  0  0  0  0  0  0
    6.1780    1.4640   -1.4540 N   0  0  0  0  0  0  0  0  0  0  0  0
    6.2940    0.4670   -0.5740 C   0  0  0  0  0  0  0  0  0  0  0  0
    6.0130    0.6170    0.7630 C   0  0  0  0  0  3  0  0  0  0  0  0
    5.4510    1.2920    3.1620 H   0  0  0  0  0  0  0  0  0  0  0  0
    5.3770    4.5770   -1.5390 H   0  0  0  0  0  0  0  0  0  0  0  0
    5.8430    3.5470   -2.8160 H   0  0  0  0  0  0  0  0  0  0  0  0
    3.7730    5.6930    4.0990 C   0  0  0  0  0  0  0  0  0  0  0  0
    2.8940    4.7230    3.6060 C   0  0  0  0  0  3  0  0  0  0  0  0
    3.3660    3.4940    3.1110 C   0  0  0  0  0  0  0  0  0  0  0  0
    2.3650    2.4940    2.5970 C   0  0  0  0  0  1  0  0  0  0  0  0
    4.7500    3.2420    3.0930 C   0  0  0  0  0  0  0  0  0  0  0  0
    5.6310    4.2230    3.5830 C   0  0  0  0  0  3  0  0  0  0  0  0
    5.1560    5.4400    4.0860 C   0  0  0  0  0  0  0  0  0  0  0  0
    2.9880    7.9120    3.6870 C   0  0  0  0  0  1  0  0  0  0  0  0
    3.3850    6.9080    4.6080 O   0  0  0  0  0  0  0  0  0  0  0  0
    5.9560    6.4390    4.5860 O   0  0  0  0  0  0  0  0  0  0  0  0
    7.3520    6.1900    4.6600 C   0  0  0  0  0  1  0  0  0  0  0  0
    6.6780   -0.7750   -1.0820 N   0  0  0  0  0  0  0  0  0  0  0  0
    7.3760   -1.2990   -0.6260 H   0  0  0  0  0  0  0  0  0  0  0  0
    6.2520   -1.1260   -1.8970 H   0  0  0  0  0  0  0  0  0  0  0  0
  1 16  1  0  0  0  0
  1  9  1  0  0  0  0
  2  1  1  0  0  0  0
  3  2  1  0  0  0  0
  4  3  2  0  0  0  0
  5 10  1  0  0  0  0
  5  4  1  0  0  0  0
  6  4  1  0  0  0  0
  6  7  2  0  0  0  0
  7  8  1  0  0  0  0
  8  2  2  0  0  0  0
 11  5  1  0  0  0  0
 12 20  1  0  0  0  0
 13 12  2  0  0  0  0
 14 13  1  0  0  0  0
 15 14  1  0  0  0  0
 16 14  2  0  0  0  0
 16 17  1  0  0  0  0
 17 18  2  0  0  0  0
 18 12  1  0  0  0  0
 18 21  1  0  0  0  0
 19 20  1  0  0  0  0
 21 22  1  0  0  0  0
 23 24  1  0  0  0  0
 23  7  1  0  0  0  0
 25 23  1  0  0  0  0
M  END
>  <MODEL>
7

>  <REMARK>
 VINA RESULT:    -7.379      3.342      5.091
 INTER + INTRA:          -9.275
 INTER:                  -8.789
 INTRA:                  -0.485
 UNBOUND:                -0.385
  Name = 
  7 active torsions:
  status: ('A' for Active; 'I' for Inactive)
    1  A    between atoms: C_1  and  O_2
    2  A    between atoms: O_2  and  C_3
    3  A    between atoms: C_5  and  C_6
    4  A    between atoms: C_7  and  N_8
    5  A    between atoms: C_14  and  N_15
    6  A    between atoms: C_18  and  O_19
    7  A    between atoms: O_19  and  C_20
                            x       y       z     vdW  Elec       q    Type
                         _______ _______ _______ _____ _____    ______ ____

>  <TORSDO>
F 4

$$$$
=
 OpenBabel11202510543D

 25 26  0  0  0  0  0  0  0  0999 V2000
    8.3110   -1.1210    3.3770 N   0  0  0  0  0  0  0  0  0  0  0  0
    8.4370   -2.2460    4.2370 C   0  0  0  0  0  0  0  0  0  0  0  0
    7.3540   -2.8010    4.8020 N   0  0  0  0  0  0  0  0  0  0  0  0
    7.5490   -3.8420    5.6100 C   0  0  0  0  0  0  0  0  0  0  0  0
    6.4340   -4.4010    6.2020 N   0  0  0  0  0  0  0  0  0  0  0  0
    8.7380   -4.3610    5.9210 N   0  0  0  0  0  0  0  0  0  0  0  0
    9.8020   -3.7990    5.3430 C   0  0  0  0  0  0  0  0  0  0  0  0
    9.7060   -2.7250    4.4900 C   0  0  0  0  0  3  0  0  0  0  0  0
    9.1240   -0.7860    2.9320 H   0  0  0  0  0  0  0  0  0  0  0  0
    5.5390   -4.0460    5.9980 H   0  0  0  0  0  0  0  0  0  0  0  0
    6.5340   -5.1540    6.8290 H   0  0  0  0  0  0  0  0  0  0  0  0
    4.7240    1.0090    2.6090 C   0  0  0  0  0  0  0  0  0  0  0  0
    5.0610   -0.1000    1.8250 C   0  0  0  0  0  3  0  0  0  0  0  0
    6.2300   -0.8410    2.0740 C   0  0  0  0  0  0  0  0  0  0  0  0
    6.5320   -2.0240    1.1940 C   0  0  0  0  0  1  0  0  0  0  0  0
    7.0880   -0.4490    3.1190 C   0  0  0  0  0  0  0  0  0  0  0  0
    6.7490    0.6700    3.8990 C   0  0  0  0  0  3  0  0  0  0  0  0
    5.5780    1.3980    3.6560 C   0  0  0  0  0  0  0  0  0  0  0  0
    3.4660    2.4870    1.2140 C   0  0  0  0  0  1  0  0  0  0  0  0
    3.5960    1.7720    2.4340 O   0  0  0  0  0  0  0  0  0  0  0  0
    5.1810    2.4960    4.3810 O   0  0  0  0  0  0  0  0  0  0  0  0
    6.1320    3.5300    4.5850 C   0  0  0  0  0  1  0  0  0  0  0  0
   11.0480   -4.3270    5.6800 N   0  0  0  0  0  0  0  0  0  0  0  0
   11.8140   -3.7260    5.8300 H   0  0  0  0  0  0  0  0  0  0  0  0
   11.1630   -5.3010    5.7680 H   0  0  0  0  0  0  0  0  0  0  0  0
  1  2  1  0  0  0  0
  2  8  2  0  0  0  0
  2  3  1  0  0  0  0
  3  4  2  0  0  0  0
  4  6  1  0  0  0  0
  4  5  1  0  0  0  0
  5 11  1  0  0  0  0
  7 23  1  0  0  0  0
  7  6  2  0  0  0  0
  8  7  1  0  0  0  0
  9  1  1  0  0  0  0
 10  5  1  0  0  0  0
 12 18  1  0  0  0  0
 13 14  1  0  0  0  0
 13 12  2  0  0  0  0
 14 16  2  0  0  0  0
 15 14  1  0  0  0  0
 16  1  1  0  0  0  0
 16 17  1  0  0  0  0
 18 17  2  0  0  0  0
 18 21  1  0  0  0  0
 19 20  1  0  0  0  0
 20 12  1  0  0  0  0
 21 22  1  0  0  0  0
 23 25  1  0  0  0  0
 23 24  1  0  0  0  0
M  END
>  <MODEL>
8

>  <REMARK>
 VINA RESULT:    -7.337      4.118      7.136
 INTER + INTRA:          -9.224
 INTER:                  -8.708
 INTRA:                  -0.516
 UNBOUND:                -0.385
  Name = 
  7 active torsions:
  status: ('A' for Active; 'I' for Inactive)
    1  A    between atoms: C_1  and  O_2
    2  A    between atoms: O_2  and  C_3
    3  A    between atoms: C_5  and  C_6
    4  A    between atoms: C_7  and  N_8
    5  A    between atoms: C_14  and  N_15
    6  A    between atoms: C_18  and  O_19
    7  A    between atoms: O_19  and  C_20
                            x       y       z     vdW  Elec       q    Type
                         _______ _______ _______ _____ _____    ______ ____

>  <TORSDO>
F 4

$$$$
=
 OpenBabel11202510543D

 25 26  0  0  0  0  0  0  0  0999 V2000
    6.3080   -1.1080    2.0100 N   0  0  0  0  0  0  0  0  0  0  0  0
    7.2510   -0.9180    3.0570 C   0  0  0  0  0  0  0  0  0  0  0  0
    7.5490    0.3150    3.4950 N   0  0  0  0  0  0  0  0  0  0  0  0
    8.4540    0.4180    4.4670 C   0  0  0  0  0  0  0  0  0  0  0  0
    8.7700    1.6890    4.9050 N   0  0  0  0  0  0  0  0  0  0  0  0
    9.1080   -0.6050    5.0200 N   0  0  0  0  0  0  0  0  0  0  0  0
    8.7920   -1.8230    4.5740 C   0  0  0  0  0  0  0  0  0  0  0  0
    7.8670   -2.0360    3.5800 C   0  0  0  0  0  3  0  0  0  0  0  0
    6.0710   -2.0320    1.7640 H   0  0  0  0  0  0  0  0  0  0  0  0
    8.3100    2.4700    4.5210 H   0  0  0  0  0  0  0  0  0  0  0  0
    9.4550    1.8140    5.6020 H   0  0  0  0  0  0  0  0  0  0  0  0
    4.4660    2.1380   -0.0050 C   0  0  0  0  0  0  0  0  0  0  0  0
    5.4520    1.3840   -0.6490 C   0  0  0  0  0  3  0  0  0  0  0  0
    6.0610    0.2860   -0.0150 C   0  0  0  0  0  0  0  0  0  0  0  0
    7.1140   -0.4840   -0.7670 C   0  0  0  0  0  1  0  0  0  0  0  0
    5.6850   -0.0500    1.2980 C   0  0  0  0  0  0  0  0  0  0  0  0
    4.6980    0.7160    1.9440 C   0  0  0  0  0  3  0  0  0  0  0  0
    4.0860    1.8010    1.3060 C   0  0  0  0  0  0  0  0  0  0  0  0
    4.6030    4.3470   -0.9080 C   0  0  0  0  0  1  0  0  0  0  0  0
    3.8200    3.2140   -0.5640 O   0  0  0  0  0  0  0  0  0  0  0  0
    3.1120    2.5880    1.8720 O   0  0  0  0  0  0  0  0  0  0  0  0
    2.5880    2.1840    3.1280 C   0  0  0  0  0  1  0  0  0  0  0  0
    9.4860   -2.8940    5.1380 N   0  0  0  0  0  0  0  0  0  0  0  0
    9.8500   -2.8200    6.0500 H   0  0  0  0  0  0  0  0  0  0  0  0
    9.6120   -3.7240    4.6240 H   0  0  0  0  0  0  0  0  0  0  0  0
  1  2  1  0  0  0  0
  2  3  1  0  0  0  0
  2  8  2  0  0  0  0
  3  4  2  0  0  0  0
  4  5  1  0  0  0  0
  4  6  1  0  0  0  0
  5 11  1  0  0  0  0
  7  6  2  0  0  0  0
  7 23  1  0  0  0  0
  8  7  1  0  0  0  0
  9  1  1  0  0  0  0
 10  5  1  0  0  0  0
 12 18  1  0  0  0  0
 13 14  1  0  0  0  0
 13 12  2  0  0  0  0
 14 16  2  0  0  0  0
 15 14  1  0  0  0  0
 16 17  1  0  0  0  0
 16  1  1  0  0  0  0
 18 21  1  0  0  0  0
 18 17  2  0  0  0  0
 19 20  1  0  0  0  0
 20 12  1  0  0  0  0
 21 22  1  0  0  0  0
 23 24  1  0  0  0  0
 25 23  1  0  0  0  0
M  END
>  <MODEL>
9

>  <REMARK>
 VINA RESULT:    -7.319      3.612      6.246
 INTER + INTRA:          -9.202
 INTER:                  -8.804
 INTRA:                  -0.398
 UNBOUND:                -0.385
  Name = 
  7 active torsions:
  status: ('A' for Active; 'I' for Inactive)
    1  A    between atoms: C_1  and  O_2
    2  A    between atoms: O_2  and  C_3
    3  A    between atoms: C_5  and  C_6
    4  A    between atoms: C_7  and  N_8
    5  A    between atoms: C_14  and  N_15
    6  A    between atoms: C_18  and  O_19
    7  A    between atoms: O_19  and  C_20
                            x       y       z     vdW  Elec       q    Type
                         _______ _______ _______ _____ _____    ______ ____

>  <TORSDO>
F 4

$$$$
=
 OpenBabel11202510543D

 25 26  0  0  0  0  0  0  0  0999 V2000
    6.0330   -0.3890    3.4510 N   0  0  0  0  0  0  0  0  0  0  0  0
    5.8740    0.0340    2.1020 C   0  0  0  0  0  0  0  0  0  0  0  0
    6.6200   -0.5020    1.1240 N   0  0  0  0  0  0  0  0  0  0  0  0
    6.4290   -0.0450   -0.1130 C   0  0  0  0  0  0  0  0  0  0  0  0
    7.2090   -0.5870   -1.1150 N   0  0  0  0  0  0  0  0  0  0  0  0
    5.5720    0.9200   -0.4510 N   0  0  0  0  0  0  0  0  0  0  0  0
    4.8360    1.4350    0.5360 C   0  0  0  0  0  0  0  0  0  0  0  0
    4.9530    1.0280    1.8430 C   0  0  0  0  0  3  0  0  0  0  0  0
    5.4210   -0.0170    4.1270 H   0  0  0  0  0  0  0  0  0  0  0  0
    7.8520   -1.3020   -0.9050 H   0  0  0  0  0  0  0  0  0  0  0  0
    7.1210   -0.2590   -2.0400 H   0  0  0  0  0  0  0  0  0  0  0  0
    8.9540   -3.2300    4.6290 C   0  0  0  0  0  0  0  0  0  0  0  0
    9.2580   -1.8650    4.6490 C   0  0  0  0  0  3  0  0  0  0  0  0
    8.3010   -0.8990    4.2890 C   0  0  0  0  0  0  0  0  0  0  0  0
    8.6950    0.5530    4.3340 C   0  0  0  0  0  1  0  0  0  0  0  0
    7.0190   -1.3140    3.8840 C   0  0  0  0  0  0  0  0  0  0  0  0
    6.7200   -2.6880    3.8590 C   0  0  0  0  0  3  0  0  0  0  0  0
    7.6710   -3.6450    4.2290 C   0  0  0  0  0  0  0  0  0  0  0  0
   11.0050   -3.8570    5.6840 C   0  0  0  0  0  1  0  0  0  0  0  0
    9.8310   -4.2280    4.9780 O   0  0  0  0  0  0  0  0  0  0  0  0
    7.4470   -5.0010    4.2350 O   0  0  0  0  0  0  0  0  0  0  0  0
    6.8380   -5.5630    5.3880 C   0  0  0  0  0  1  0  0  0  0  0  0
    3.9520    2.4570    0.1880 N   0  0  0  0  0  0  0  0  0  0  0  0
    4.1010    3.3720    0.5220 H   0  0  0  0  0  0  0  0  0  0  0  0
    3.1790    2.2640   -0.3910 H   0  0  0  0  0  0  0  0  0  0  0  0
  1 16  1  0  0  0  0
  1  9  1  0  0  0  0
  2  1  1  0  0  0  0
  3  2  1  0  0  0  0
  4  3  2  0  0  0  0
  5 10  1  0  0  0  0
  5  4  1  0  0  0  0
  6  4  1  0  0  0  0
  6  7  2  0  0  0  0
  7  8  1  0  0  0  0
  8  2  2  0  0  0  0
 11  5  1  0  0  0  0
 12 13  1  0  0  0  0
 12 20  1  0  0  0  0
 14 15  1  0  0  0  0
 14 13  2  0  0  0  0
 16 14  1  0  0  0  0
 17 16  2  0  0  0  0
 17 18  1  0  0  0  0
 18 21  1  0  0  0  0
 18 12  2  0  0  0  0
 20 19  1  0  0  0  0
 21 22  1  0  0  0  0
 23 24  1  0  0  0  0
 23  7  1  0  0  0  0
 25 23  1  0  0  0  0
M  END
>  <MODEL>
10

>  <REMARK>
 VINA RESULT:    -7.279      2.728      4.298
 INTER + INTRA:          -9.153
 INTER:                  -8.738
 INTRA:                  -0.415
 UNBOUND:                -0.385
  Name = 
  7 active torsions:
  status: ('A' for Active; 'I' for Inactive)
    1  A    between atoms: C_1  and  O_2
    2  A    between atoms: O_2  and  C_3
    3  A    between atoms: C_5  and  C_6
    4  A    between atoms: C_7  and  N_8
    5  A    between atoms: C_14  and  N_15
    6  A    between atoms: C_18  and  O_19
    7  A    between atoms: O_19  and  C_20
                            x       y       z     vdW  Elec       q    Type
                         _______ _______ _______ _____ _____    ______ ____

>  <TORSDO>
F 4

$$$$
=
 OpenBabel11202510543D

 25 26  0  0  0  0  0  0  0  0999 V2000
    9.0620   -1.2050    3.8100 N   0  0  0  0  0  0  0  0  0  0  0  0
    8.9650   -2.3620    4.6320 C   0  0  0  0  0  0  0  0  0  0  0  0
    7.7690   -2.8220    5.0280 N   0  0  0  0  0  0  0  0  0  0  0  0
    7.7550   -3.9000    5.8100 C   0  0  0  0  0  0  0  0  0  0  0  0
    6.5230   -4.3630    6.2280 N   0  0  0  0  0  0  0  0  0  0  0  0
    8.8370   -4.5420    6.2520 N   0  0  0  0  0  0  0  0  0  0  0  0
   10.0170   -4.0720    5.8420 C   0  0  0  0  0  0  0  0  0  0  0  0
   10.1380   -2.9710    5.0290 C   0  0  0  0  0  3  0  0  0  0  0  0
    9.9550   -0.9400    3.4900 H   0  0  0  0  0  0  0  0  0  0  0  0
    5.7010   -3.9160    5.9240 H   0  0  0  0  0  0  0  0  0  0  0  0
    6.4670   -5.1400    6.8310 H   0  0  0  0  0  0  0  0  0  0  0  0
    5.6620    1.0640    2.6790 C   0  0  0  0  0  0  0  0  0  0  0  0
    6.6080    1.6100    3.5530 C   0  0  0  0  0  3  0  0  0  0  0  0
    7.7590    0.8910    3.9240 C   0  0  0  0  0  0  0  0  0  0  0  0
    8.7370    1.5390    4.8670 C   0  0  0  0  0  1  0  0  0  0  0  0
    7.9530   -0.4090    3.4220 C   0  0  0  0  0  0  0  0  0  0  0  0
    6.9960   -0.9560    2.5500 C   0  0  0  0  0  3  0  0  0  0  0  0
    5.8580   -0.2330    2.1730 C   0  0  0  0  0  0  0  0  0  0  0  0
    3.6110    2.1440    3.2590 C   0  0  0  0  0  1  0  0  0  0  0  0
    4.5240    1.7100    2.2630 O   0  0  0  0  0  0  0  0  0  0  0  0
    4.8860   -0.7010    1.3210 O   0  0  0  0  0  0  0  0  0  0  0  0
    5.3060   -1.2410    0.0770 C   0  0  0  0  0  1  0  0  0  0  0  0
   11.1520   -4.7310    6.3160 N   0  0  0  0  0  0  0  0  0  0  0  0
   11.1840   -5.7150    6.3230 H   0  0  0  0  0  0  0  0  0  0  0  0
   11.9210   -4.2120    6.6450 H   0  0  0  0  0  0  0  0  0  0  0  0
  1  2  1  0  0  0  0
  2  3  1  0  0  0  0
  2  8  2  0  0  0  0
  3  4  2  0  0  0  0
  4  5  1  0  0  0  0
  4  6  1  0  0  0  0
  5 11  1  0  0  0  0
  7  6  2  0  0  0  0
  7 23  1  0  0  0  0
  8  7  1  0  0  0  0
  9  1  1  0  0  0  0
 10  5  1  0  0  0  0
 12 13  1  0  0  0  0
 13 14  2  0  0  0  0
 14 15  1  0  0  0  0
 16  1  1  0  0  0  0
 16 14  1  0  0  0  0
 17 16  2  0  0  0  0
 18 17  1  0  0  0  0
 18 12  2  0  0  0  0
 20 12  1  0  0  0  0
 20 19  1  0  0  0  0
 21 18  1  0  0  0  0
 22 21  1  0  0  0  0
 23 24  1  0  0  0  0
 23 25  1  0  0  0  0
M  END
>  <MODEL>
11

>  <REMARK>
 VINA RESULT:    -7.170      4.513      7.744
 INTER + INTRA:          -9.023
 INTER:                  -8.679
 INTRA:                  -0.343
 UNBOUND:                -0.385
  Name = 
  7 active torsions:
  status: ('A' for Active; 'I' for Inactive)
    1  A    between atoms: C_1  and  O_2
    2  A    between atoms: O_2  and  C_3
    3  A    between atoms: C_5  and  C_6
    4  A    between atoms: C_7  and  N_8
    5  A    between atoms: C_14  and  N_15
    6  A    between atoms: C_18  and  O_19
    7  A    between atoms: O_19  and  C_20
                            x       y       z     vdW  Elec       q    Type
                         _______ _______ _______ _____ _____    ______ ____

>  <TORSDO>
F 4

$$$$
=
 OpenBabel11202510543D

 25 26  0  0  0  0  0  0  0  0999 V2000
    5.0090   -1.2490    1.8860 N   0  0  0  0  0  0  0  0  0  0  0  0
    6.0980   -1.8260    2.5950 C   0  0  0  0  0  0  0  0  0  0  0  0
    7.1820   -1.0960    2.8990 N   0  0  0  0  0  0  0  0  0  0  0  0
    8.1700   -1.7080    3.5490 C   0  0  0  0  0  0  0  0  0  0  0  0
    9.2900   -0.9570    3.8480 N   0  0  0  0  0  0  0  0  0  0  0  0
    8.1790   -2.9950    3.8980 N   0  0  0  0  0  0  0  0  0  0  0  0
    7.0890   -3.7020    3.5920 C   0  0  0  0  0  0  0  0  0  0  0  0
    6.0130   -3.1620    2.9280 C   0  0  0  0  0  3  0  0  0  0  0  0
    4.2070   -1.8020    1.7410 H   0  0  0  0  0  0  0  0  0  0  0  0
    9.3220   -0.0040    3.6060 H   0  0  0  0  0  0  0  0  0  0  0  0
   10.0580   -1.3760    4.3020 H   0  0  0  0  0  0  0  0  0  0  0  0
    5.0360    2.7560    0.4880 C   0  0  0  0  0  0  0  0  0  0  0  0
    5.6570    1.7500   -0.2600 C   0  0  0  0  0  3  0  0  0  0  0  0
    5.6400    0.4090    0.1660 C   0  0  0  0  0  0  0  0  0  0  0  0
    6.3260   -0.6240   -0.6880 C   0  0  0  0  0  1  0  0  0  0  0  0
    5.0040    0.0760    1.3760 C   0  0  0  0  0  0  0  0  0  0  0  0
    4.3880    1.0920    2.1280 C   0  0  0  0  0  3  0  0  0  0  0  0
    4.3960    2.4230    1.6950 C   0  0  0  0  0  0  0  0  0  0  0  0
    4.5680    4.3990   -1.1840 C   0  0  0  0  0  1  0  0  0  0  0  0
    5.0010    4.0820    0.1300 O   0  0  0  0  0  0  0  0  0  0  0  0
    3.8100    3.4650    2.3730 O   0  0  0  0  0  0  0  0  0  0  0  0
    2.7070    3.1640    3.2150 C   0  0  0  0  0  1  0  0  0  0  0  0
    7.1020   -5.0530    3.9400 N   0  0  0  0  0  0  0  0  0  0  0  0
    7.9360   -5.5730    3.8640 H   0  0  0  0  0  0  0  0  0  0  0  0
    6.2790   -5.4870    4.2610 H   0  0  0  0  0  0  0  0  0  0  0  0
  1  2  1  0  0  0  0
  2  3  1  0  0  0  0
  2  8  2  0  0  0  0
  3  4  2  0  0  0  0
  4  5  1  0  0  0  0
  4  6  1  0  0  0  0
  5 11  1  0  0  0  0
  7  6  2  0  0  0  0
  7 23  1  0  0  0  0
  8  7  1  0  0  0  0
  9  1  1  0  0  0  0
 10  5  1  0  0  0  0
 12 18  1  0  0  0  0
 13 14  1  0  0  0  0
 13 12  2  0  0  0  0
 14 16  2  0  0  0  0
 15 14  1  0  0  0  0
 16  1  1  0  0  0  0
 16 17  1  0  0  0  0
 18 17  2  0  0  0  0
 18 21  1  0  0  0  0
 19 20  1  0  0  0  0
 20 12  1  0  0  0  0
 21 22  1  0  0  0  0
 23 25  1  0  0  0  0
 24 23  1  0  0  0  0
M  END
>  <MODEL>
12

>  <REMARK>
 VINA RESULT:    -7.166      3.528      6.086
 INTER + INTRA:          -9.018
 INTER:                  -8.569
 INTRA:                  -0.450
 UNBOUND:                -0.385
  Name = 
  7 active torsions:
  status: ('A' for Active; 'I' for Inactive)
    1  A    between atoms: C_1  and  O_2
    2  A    between atoms: O_2  and  C_3
    3  A    between atoms: C_5  and  C_6
    4  A    between atoms: C_7  and  N_8
    5  A    between atoms: C_14  and  N_15
    6  A    between atoms: C_18  and  O_19
    7  A    between atoms: O_19  and  C_20
                            x       y       z     vdW  Elec       q    Type
                         _______ _______ _______ _____ _____    ______ ____

>  <TORSDO>
F 4

$$$$
=
 OpenBabel11202510543D

 25 26  0  0  0  0  0  0  0  0999 V2000
    6.3750   -0.4200    0.8690 N   0  0  0  0  0  0  0  0  0  0  0  0
    5.3760    0.5570    0.6060 C   0  0  0  0  0  0  0  0  0  0  0  0
    4.7590    1.1950    1.6130 N   0  0  0  0  0  0  0  0  0  0  0  0
    3.8220    2.0850    1.2930 C   0  0  0  0  0  0  0  0  0  0  0  0
    3.1790    2.7280    2.3320 N   0  0  0  0  0  0  0  0  0  0  0  0
    3.4290    2.3740    0.0510 N   0  0  0  0  0  0  0  0  0  0  0  0
    4.0590    1.7330   -0.9360 C   0  0  0  0  0  0  0  0  0  0  0  0
    5.0440    0.8020   -0.7100 C   0  0  0  0  0  3  0  0  0  0  0  0
    6.8470   -0.8160    0.1000 H   0  0  0  0  0  0  0  0  0  0  0  0
    3.4410    2.5420    3.2620 H   0  0  0  0  0  0  0  0  0  0  0  0
    2.4590    3.3730    2.1420 H   0  0  0  0  0  0  0  0  0  0  0  0
    7.4210   -1.6060    4.8050 C   0  0  0  0  0  0  0  0  0  0  0  0
    6.5800   -2.4140    4.0310 C   0  0  0  0  0  3  0  0  0  0  0  0
    6.2380   -2.0590    2.7140 C   0  0  0  0  0  0  0  0  0  0  0  0
    5.3300   -2.9740    1.9360 C   0  0  0  0  0  1  0  0  0  0  0  0
    6.7350   -0.8600    2.1690 C   0  0  0  0  0  0  0  0  0  0  0  0
    7.5740   -0.0490    2.9530 C   0  0  0  0  0  3  0  0  0  0  0  0
    7.9220   -0.4110    4.2600 C   0  0  0  0  0  0  0  0  0  0  0  0
    7.6080   -3.2190    6.5590 C   0  0  0  0  0  1  0  0  0  0  0  0
    7.8080   -1.8940    6.0910 O   0  0  0  0  0  0  0  0  0  0  0  0
    8.7400    0.3280    5.0800 O   0  0  0  0  0  0  0  0  0  0  0  0
    8.7720    1.7340    4.8840 C   0  0  0  0  0  1  0  0  0  0  0  0
    3.6380    2.0200   -2.2350 N   0  0  0  0  0  0  0  0  0  0  0  0
    4.2400    2.4940   -2.8540 H   0  0  0  0  0  0  0  0  0  0  0  0
    2.7410    1.7470   -2.5340 H   0  0  0  0  0  0  0  0  0  0  0  0
  1 16  1  0  0  0  0
  2  1  1  0  0  0  0
  2  3  1  0  0  0  0
  4  3  2  0  0  0  0
  4  5  1  0  0  0  0
  5 10  1  0  0  0  0
  6  4  1  0  0  0  0
  7  8  1  0  0  0  0
  7  6  2  0  0  0  0
  8  2  2  0  0  0  0
  9  1  1  0  0  0  0
 11  5  1  0  0  0  0
 12 20  1  0  0  0  0
 13 12  2  0  0  0  0
 14 13  1  0  0  0  0
 15 14  1  0  0  0  0
 16 14  2  0  0  0  0
 16 17  1  0  0  0  0
 17 18  2  0  0  0  0
 18 12  1  0  0  0  0
 18 21  1  0  0  0  0
 20 19  1  0  0  0  0
 22 21  1  0  0  0  0
 23  7  1  0  0  0  0
 24 23  1  0  0  0  0
 25 23  1  0  0  0  0
M  END
>  <MODEL>
13

>  <REMARK>
 VINA RESULT:    -7.156      1.851      2.482
 INTER + INTRA:          -9.006
 INTER:                  -8.561
 INTRA:                  -0.445
 UNBOUND:                -0.385
  Name = 
  7 active torsions:
  status: ('A' for Active; 'I' for Inactive)
    1  A    between atoms: C_1  and  O_2
    2  A    between atoms: O_2  and  C_3
    3  A    between atoms: C_5  and  C_6
    4  A    between atoms: C_7  and  N_8
    5  A    between atoms: C_14  and  N_15
    6  A    between atoms: C_18  and  O_19
    7  A    between atoms: O_19  and  C_20
                            x       y       z     vdW  Elec       q    Type
                         _______ _______ _______ _____ _____    ______ ____

>  <TORSDO>
F 4

$$$$
=
 OpenBabel11202510543D

 25 26  0  0  0  0  0  0  0  0999 V2000
    5.0600    1.8970    3.3190 N   0  0  0  0  0  0  0  0  0  0  0  0
    6.3510    1.4790    3.7440 C   0  0  0  0  0  0  0  0  0  0  0  0
    7.1150    2.2800    4.5030 N   0  0  0  0  0  0  0  0  0  0  0  0
    8.3190    1.8300    4.8490 C   0  0  0  0  0  0  0  0  0  0  0  0
    9.1090    2.6620    5.6180 N   0  0  0  0  0  0  0  0  0  0  0  0
    8.8370    0.6580    4.4790 N   0  0  0  0  0  0  0  0  0  0  0  0
    8.0590   -0.1260    3.7290 C   0  0  0  0  0  0  0  0  0  0  0  0
    6.7990    0.2430    3.3240 C   0  0  0  0  0  3  0  0  0  0  0  0
    4.5080    1.2520    2.8180 H   0  0  0  0  0  0  0  0  0  0  0  0
    8.7620    3.5350    5.9110 H   0  0  0  0  0  0  0  0  0  0  0  0
   10.0180    2.3820    5.8730 H   0  0  0  0  0  0  0  0  0  0  0  0
    3.5310    5.7960    3.9900 C   0  0  0  0  0  0  0  0  0  0  0  0
    2.6600    4.7470    3.6810 C   0  0  0  0  0  3  0  0  0  0  0  0
    3.1360    3.4380    3.4790 C   0  0  0  0  0  0  0  0  0  0  0  0
    2.1420    2.3560    3.1510 C   0  0  0  0  0  1  0  0  0  0  0  0
    4.5160    3.1830    3.5720 C   0  0  0  0  0  0  0  0  0  0  0  0
    5.3890    4.2420    3.8760 C   0  0  0  0  0  3  0  0  0  0  0  0
    4.9110    5.5410    4.0880 C   0  0  0  0  0  0  0  0  0  0  0  0
    2.7500    7.8660    3.0860 C   0  0  0  0  0  1  0  0  0  0  0  0
    3.1390    7.0940    4.2110 O   0  0  0  0  0  0  0  0  0  0  0  0
    5.7030    6.6210    4.3940 O   0  0  0  0  0  0  0  0  0  0  0  0
    7.0790    6.3770    4.6480 C   0  0  0  0  0  1  0  0  0  0  0  0
    8.6050   -1.3450    3.3250 N   0  0  0  0  0  0  0  0  0  0  0  0
    8.1660   -2.1900    3.5810 H   0  0  0  0  0  0  0  0  0  0  0  0
    9.4270   -1.3620    2.7840 H   0  0  0  0  0  0  0  0  0  0  0  0
  1 16  1  0  0  0  0
  1  2  1  0  0  0  0
  2  3  1  0  0  0  0
  3  4  2  0  0  0  0
  4  5  1  0  0  0  0
  5 11  1  0  0  0  0
  5 10  1  0  0  0  0
  6  4  1  0  0  0  0
  7  6  2  0  0  0  0
  8  7  1  0  0  0  0
  8  2  2  0  0  0  0
  9  1  1  0  0  0  0
 12 18  1  0  0  0  0
 12 20  1  0  0  0  0
 13 12  2  0  0  0  0
 14 16  2  0  0  0  0
 14 13  1  0  0  0  0
 15 14  1  0  0  0  0
 16 17  1  0  0  0  0
 17 18  2  0  0  0  0
 18 21  1  0  0  0  0
 19 20  1  0  0  0  0
 21 22  1  0  0  0  0
 23 24  1  0  0  0  0
 23  7  1  0  0  0  0
 25 23  1  0  0  0  0
M  END
>  <MODEL>
14

>  <REMARK>
 VINA RESULT:    -7.119      4.313      6.647
 INTER + INTRA:          -8.961
 INTER:                  -9.290
 INTRA:                   0.330
 UNBOUND:                -0.385
  Name = 
  7 active torsions:
  status: ('A' for Active; 'I' for Inactive)
    1  A    between atoms: C_1  and  O_2
    2  A    between atoms: O_2  and  C_3
    3  A    between atoms: C_5  and  C_6
    4  A    between atoms: C_7  and  N_8
    5  A    between atoms: C_14  and  N_15
    6  A    between atoms: C_18  and  O_19
    7  A    between atoms: O_19  and  C_20
                            x       y       z     vdW  Elec       q    Type
                         _______ _______ _______ _____ _____    ______ ____

>  <TORSDO>
F 4

$$$$
=
 OpenBabel11202510543D

 25 26  0  0  0  0  0  0  0  0999 V2000
    4.5680    2.6230    2.0800 N   0  0  0  0  0  0  0  0  0  0  0  0
    4.7980    2.7620    0.6830 C   0  0  0  0  0  0  0  0  0  0  0  0
    5.9010    3.3780    0.2290 N   0  0  0  0  0  0  0  0  0  0  0  0
    6.0420    3.4870   -1.0910 C   0  0  0  0  0  0  0  0  0  0  0  0
    7.1700    4.1340   -1.5550 N   0  0  0  0  0  0  0  0  0  0  0  0
    5.1620    3.0550   -1.9960 N   0  0  0  0  0  0  0  0  0  0  0  0
    4.0760    2.4400   -1.5240 C   0  0  0  0  0  0  0  0  0  0  0  0
    3.8400    2.2720   -0.1800 C   0  0  0  0  0  3  0  0  0  0  0  0
    3.7790    2.1080    2.3680 H   0  0  0  0  0  0  0  0  0  0  0  0
    7.8420    4.4670   -0.9190 H   0  0  0  0  0  0  0  0  0  0  0  0
    7.3010    4.2630   -2.5230 H   0  0  0  0  0  0  0  0  0  0  0  0
    7.1770    4.2500    5.0010 C   0  0  0  0  0  0  0  0  0  0  0  0
    6.0720    4.9870    4.5620 C   0  0  0  0  0  3  0  0  0  0  0  0
    5.1750    4.4620    3.6140 C   0  0  0  0  0  0  0  0  0  0  0  0
    4.0060    5.3080    3.1860 C   0  0  0  0  0  1  0  0  0  0  0  0
    5.4030    3.1790    3.0830 C   0  0  0  0  0  0  0  0  0  0  0  0
    6.5190    2.4450    3.5230 C   0  0  0  0  0  3  0  0  0  0  0  0
    7.4030    2.9660    4.4760 C   0  0  0  0  0  0  0  0  0  0  0  0
    8.9480    5.7560    5.5570 C   0  0  0  0  0  1  0  0  0  0  0  0
    8.0860    4.6920    5.9310 O   0  0  0  0  0  0  0  0  0  0  0  0
    8.5070    2.3040    4.9550 O   0  0  0  0  0  0  0  0  0  0  0  0
    8.6910    0.9550    4.5550 C   0  0  0  0  0  1  0  0  0  0  0  0
    3.1450    2.0030   -2.4660 N   0  0  0  0  0  0  0  0  0  0  0  0
    2.8210    1.0730   -2.4450 H   0  0  0  0  0  0  0  0  0  0  0  0
    2.8110    2.6240   -3.1530 H   0  0  0  0  0  0  0  0  0  0  0  0
  1  9  1  0  0  0  0
  1 16  1  0  0  0  0
  2  1  1  0  0  0  0
  3  2  1  0  0  0  0
  4  3  2  0  0  0  0
  5  4  1  0  0  0  0
  5 10  1  0  0  0  0
  6  7  2  0  0  0  0
  6  4  1  0  0  0  0
  7  8  1  0  0  0  0
  8  2  2  0  0  0  0
 11  5  1  0  0  0  0
 12 20  1  0  0  0  0
 13 12  1  0  0  0  0
 14 13  2  0  0  0  0
 15 14  1  0  0  0  0
 16 17  2  0  0  0  0
 16 14  1  0  0  0  0
 17 18  1  0  0  0  0
 18 21  1  0  0  0  0
 18 12  2  0  0  0  0
 19 20  1  0  0  0  0
 22 21  1  0  0  0  0
 23 24  1  0  0  0  0
 23  7  1  0  0  0  0
 25 23  1  0  0  0  0
M  END
>  <MODEL>
15

>  <REMARK>
 VINA RESULT:    -7.039      2.374      3.889
 INTER + INTRA:          -8.864
 INTER:                  -8.354
 INTRA:                  -0.510
 UNBOUND:                -0.385
  Name = 
  7 active torsions:
  status: ('A' for Active; 'I' for Inactive)
    1  A    between atoms: C_1  and  O_2
    2  A    between atoms: O_2  and  C_3
    3  A    between atoms: C_5  and  C_6
    4  A    between atoms: C_7  and  N_8
    5  A    between atoms: C_14  and  N_15
    6  A    between atoms: C_18  and  O_19
    7  A    between atoms: O_19  and  C_20
                            x       y       z     vdW  Elec       q    Type
                         _______ _______ _______ _____ _____    ______ ____

>  <TORSDO>
F 4

$$$$
=
 OpenBabel11202510543D

 25 26  0  0  0  0  0  0  0  0999 V2000
    6.2340    0.7750    4.3290 N   0  0  0  0  0  0  0  0  0  0  0  0
    6.0600   -0.3300    3.4510 C   0  0  0  0  0  0  0  0  0  0  0  0
    5.3960   -0.1880    2.2930 N   0  0  0  0  0  0  0  0  0  0  0  0
    5.2560   -1.2700    1.5300 C   0  0  0  0  0  0  0  0  0  0  0  0
    4.5600   -1.1230    0.3460 N   0  0  0  0  0  0  0  0  0  0  0  0
    5.7010   -2.4890    1.8360 N   0  0  0  0  0  0  0  0  0  0  0  0
    6.3640   -2.6080    2.9890 C   0  0  0  0  0  0  0  0  0  0  0  0
    6.5670   -1.5520    3.8440 C   0  0  0  0  0  3  0  0  0  0  0  0
    6.7830    0.6410    5.1360 H   0  0  0  0  0  0  0  0  0  0  0  0
    4.2160   -0.2390    0.0850 H   0  0  0  0  0  0  0  0  0  0  0  0
    4.4070   -1.9030   -0.2360 H   0  0  0  0  0  0  0  0  0  0  0  0
    4.4370    4.5770    3.7760 C   0  0  0  0  0  0  0  0  0  0  0  0
    5.8040    4.4840    4.0600 C   0  0  0  0  0  3  0  0  0  0  0  0
    6.4320    3.2350    4.2220 C   0  0  0  0  0  0  0  0  0  0  0  0
    7.9060    3.2070    4.5250 C   0  0  0  0  0  1  0  0  0  0  0  0
    5.6680    2.0590    4.1140 C   0  0  0  0  0  0  0  0  0  0  0  0
    4.2940    2.1570    3.8350 C   0  0  0  0  0  3  0  0  0  0  0  0
    3.6750    3.4010    3.6630 C   0  0  0  0  0  0  0  0  0  0  0  0
    4.1760    6.8810    4.3530 C   0  0  0  0  0  1  0  0  0  0  0  0
    3.7600    5.7570    3.5930 O   0  0  0  0  0  0  0  0  0  0  0  0
    2.3400    3.5730    3.3830 O   0  0  0  0  0  0  0  0  0  0  0  0
    1.4800    2.4590    3.5680 C   0  0  0  0  0  1  0  0  0  0  0  0
    6.8150   -3.8860    3.3210 N   0  0  0  0  0  0  0  0  0  0  0  0
    6.9110   -4.5720    2.6210 H   0  0  0  0  0  0  0  0  0  0  0  0
    7.0380   -4.1020    4.2550 H   0  0  0  0  0  0  0  0  0  0  0  0
  1  9  1  0  0  0  0
  2  8  2  0  0  0  0
  2  1  1  0  0  0  0
  3  2  1  0  0  0  0
  4  6  1  0  0  0  0
  4  3  2  0  0  0  0
  5  4  1  0  0  0  0
  6  7  2  0  0  0  0
  7 23  1  0  0  0  0
  7  8  1  0  0  0  0
 10  5  1  0  0  0  0
 11  5  1  0  0  0  0
 12 13  1  0  0  0  0
 13 14  2  0  0  0  0
 14 15  1  0  0  0  0
 16 14  1  0  0  0  0
 16  1  1  0  0  0  0
 17 16  2  0  0  0  0
 18 12  2  0  0  0  0
 18 17  1  0  0  0  0
 20 12  1  0  0  0  0
 20 19  1  0  0  0  0
 21 22  1  0  0  0  0
 21 18  1  0  0  0  0
 23 25  1  0  0  0  0
 24 23  1  0  0  0  0
M  END
>  <MODEL>
16

>  <REMARK>
 VINA RESULT:    -7.027      3.740      6.087
 INTER + INTRA:          -8.850
 INTER:                  -8.738
 INTRA:                  -0.112
 UNBOUND:                -0.385
  Name = 
  7 active torsions:
  status: ('A' for Active; 'I' for Inactive)
    1  A    between atoms: C_1  and  O_2
    2  A    between atoms: O_2  and  C_3
    3  A    between atoms: C_5  and  C_6
    4  A    between atoms: C_7  and  N_8
    5  A    between atoms: C_14  and  N_15
    6  A    between atoms: C_18  and  O_19
    7  A    between atoms: O_19  and  C_20
                            x       y       z     vdW  Elec       q    Type
                         _______ _______ _______ _____ _____    ______ ____

>  <TORSDO>
F 4

$$$$
=
 OpenBabel11202510543D

 25 26  0  0  0  0  0  0  0  0999 V2000
    5.9190    0.2690    3.2280 N   0  0  0  0  0  0  0  0  0  0  0  0
    6.4140    1.5020    3.7370 C   0  0  0  0  0  0  0  0  0  0  0  0
    7.5260    1.5360    4.4880 N   0  0  0  0  0  0  0  0  0  0  0  0
    7.9210    2.7240    4.9440 C   0  0  0  0  0  0  0  0  0  0  0  0
    9.0560    2.7540    5.7290 N   0  0  0  0  0  0  0  0  0  0  0  0
    7.2840    3.8770    4.7350 N   0  0  0  0  0  0  0  0  0  0  0  0
    6.1840    3.8220    3.9810 C   0  0  0  0  0  0  0  0  0  0  0  0
    5.6980    2.6480    3.4580 C   0  0  0  0  0  3  0  0  0  0  0  0
    5.1380    0.2980    2.6280 H   0  0  0  0  0  0  0  0  0  0  0  0
    9.5540    1.9230    5.9060 H   0  0  0  0  0  0  0  0  0  0  0  0
    9.3690    3.6060    6.1110 H   0  0  0  0  0  0  0  0  0  0  0  0
    7.4990   -3.5380    4.2290 C   0  0  0  0  0  0  0  0  0  0  0  0
    7.2670   -3.2060    2.8900 C   0  0  0  0  0  3  0  0  0  0  0  0
    6.7690   -1.9420    2.5270 C   0  0  0  0  0  0  0  0  0  0  0  0
    6.5440   -1.6510    1.0670 C   0  0  0  0  0  1  0  0  0  0  0  0
    6.4810   -0.9990    3.5300 C   0  0  0  0  0  0  0  0  0  0  0  0
    6.7080   -1.3390    4.8750 C   0  0  0  0  0  3  0  0  0  0  0  0
    7.2150   -2.5940    5.2320 C   0  0  0  0  0  0  0  0  0  0  0  0
    7.0640   -5.7900    4.8990 C   0  0  0  0  0  1  0  0  0  0  0  0
    7.9930   -4.7460    4.6570 O   0  0  0  0  0  0  0  0  0  0  0  0
    7.4680   -2.9920    6.5220 O   0  0  0  0  0  0  0  0  0  0  0  0
    8.6670   -2.5340    7.1300 C   0  0  0  0  0  1  0  0  0  0  0  0
    5.5060    5.0240    3.7750 N   0  0  0  0  0  0  0  0  0  0  0  0
    4.5220    5.0340    3.7360 H   0  0  0  0  0  0  0  0  0  0  0  0
    6.0110    5.8630    3.6700 H   0  0  0  0  0  0  0  0  0  0  0  0
  1 16  1  0  0  0  0
  1  2  1  0  0  0  0
  2  3  1  0  0  0  0
  3  4  2  0  0  0  0
  4  5  1  0  0  0  0
  5 10  1  0  0  0  0
  5 11  1  0  0  0  0
  6  4  1  0  0  0  0
  7  6  2  0  0  0  0
  8  2  2  0  0  0  0
  8  7  1  0  0  0  0
  9  1  1  0  0  0  0
 12 20  1  0  0  0  0
 12 18  1  0  0  0  0
 13 12  2  0  0  0  0
 14 13  1  0  0  0  0
 14 16  2  0  0  0  0
 15 14  1  0  0  0  0
 16 17  1  0  0  0  0
 17 18  2  0  0  0  0
 18 21  1  0  0  0  0
 20 19  1  0  0  0  0
 21 22  1  0  0  0  0
 23  7  1  0  0  0  0
 24 23  1  0  0  0  0
 25 23  1  0  0  0  0
M  END
>  <MODEL>
17

>  <REMARK>
 VINA RESULT:    -6.990      3.935      5.088
 INTER + INTRA:          -8.805
 INTER:                  -8.816
 INTRA:                   0.010
 UNBOUND:                -0.385
  Name = 
  7 active torsions:
  status: ('A' for Active; 'I' for Inactive)
    1  A    between atoms: C_1  and  O_2
    2  A    between atoms: O_2  and  C_3
    3  A    between atoms: C_5  and  C_6
    4  A    between atoms: C_7  and  N_8
    5  A    between atoms: C_14  and  N_15
    6  A    between atoms: C_18  and  O_19
    7  A    between atoms: O_19  and  C_20
                            x       y       z     vdW  Elec       q    Type
                         _______ _______ _______ _____ _____    ______ ____

>  <TORSDO>
F 4

$$$$
=
 OpenBabel11202510543D

 25 26  0  0  0  0  0  0  0  0999 V2000
    7.1930   -1.8260    2.2630 N   0  0  0  0  0  0  0  0  0  0  0  0
    6.2970   -0.7870    1.8920 C   0  0  0  0  0  0  0  0  0  0  0  0
    5.7030   -0.0280    2.8260 N   0  0  0  0  0  0  0  0  0  0  0  0
    4.8620    0.9160    2.4060 C   0  0  0  0  0  0  0  0  0  0  0  0
    4.2420    1.6850    3.3700 N   0  0  0  0  0  0  0  0  0  0  0  0
    4.5440    1.1490    1.1310 N   0  0  0  0  0  0  0  0  0  0  0  0
    5.1500    0.3870    0.2180 C   0  0  0  0  0  0  0  0  0  0  0  0
    6.0380   -0.6080    0.5480 C   0  0  0  0  0  3  0  0  0  0  0  0
    7.6560   -2.3160    1.5440 H   0  0  0  0  0  0  0  0  0  0  0  0
    4.4500    1.5430    4.3210 H   0  0  0  0  0  0  0  0  0  0  0  0
    3.5900    2.3750    3.1060 H   0  0  0  0  0  0  0  0  0  0  0  0
    8.0220   -3.0840    6.2280 C   0  0  0  0  0  0  0  0  0  0  0  0
    8.6480   -1.9450    5.7100 C   0  0  0  0  0  3  0  0  0  0  0  0
    8.3720   -1.4900    4.4080 C   0  0  0  0  0  0  0  0  0  0  0  0
    9.0800   -0.2560    3.9140 C   0  0  0  0  0  1  0  0  0  0  0  0
    7.4640   -2.2030    3.6040 C   0  0  0  0  0  0  0  0  0  0  0  0
    6.8420   -3.3510    4.1270 C   0  0  0  0  0  3  0  0  0  0  0  0
    7.1100   -3.7940    5.4280 C   0  0  0  0  0  0  0  0  0  0  0  0
    9.4220   -4.3180    7.7210 C   0  0  0  0  0  1  0  0  0  0  0  0
    8.2320   -3.5800    7.4920 O   0  0  0  0  0  0  0  0  0  0  0  0
    6.5370   -4.9010    6.0050 O   0  0  0  0  0  0  0  0  0  0  0  0
    6.9080   -6.1750    5.4990 C   0  0  0  0  0  1  0  0  0  0  0  0
    4.8060    0.6160   -1.1150 N   0  0  0  0  0  0  0  0  0  0  0  0
    4.1710    1.3340   -1.3430 H   0  0  0  0  0  0  0  0  0  0  0  0
    5.1970    0.0610   -1.8270 H   0  0  0  0  0  0  0  0  0  0  0  0
  1 16  1  0  0  0  0
  2  1  1  0  0  0  0
  2  3  1  0  0  0  0
  4  3  2  0  0  0  0
  4  5  1  0  0  0  0
  5 10  1  0  0  0  0
  6  4  1  0  0  0  0
  7  8  1  0  0  0  0
  7  6  2  0  0  0  0
  8  2  2  0  0  0  0
  9  1  1  0  0  0  0
 11  5  1  0  0  0  0
 12 20  1  0  0  0  0
 13 12  1  0  0  0  0
 14 13  2  0  0  0  0
 15 14  1  0  0  0  0
 16 17  2  0  0  0  0
 16 14  1  0  0  0  0
 17 18  1  0  0  0  0
 18 21  1  0  0  0  0
 18 12  2  0  0  0  0
 20 19  1  0  0  0  0
 22 21  1  0  0  0  0
 23  7  1  0  0  0  0
 24 23  1  0  0  0  0
 25 23  1  0  0  0  0
M  END
>  <MODEL>
18

>  <REMARK>
 VINA RESULT:    -6.982      2.809      4.732
 INTER + INTRA:          -8.796
 INTER:                  -8.417
 INTRA:                  -0.378
 UNBOUND:                -0.385
  Name = 
  7 active torsions:
  status: ('A' for Active; 'I' for Inactive)
    1  A    between atoms: C_1  and  O_2
    2  A    between atoms: O_2  and  C_3
    3  A    between atoms: C_5  and  C_6
    4  A    between atoms: C_7  and  N_8
    5  A    between atoms: C_14  and  N_15
    6  A    between atoms: C_18  and  O_19
    7  A    between atoms: O_19  and  C_20
                            x       y       z     vdW  Elec       q    Type
                         _______ _______ _______ _____ _____    ______ ____

>  <TORSDO>
F 4

$$$$
=
 OpenBabel11202510543D

 25 26  0  0  0  0  0  0  0  0999 V2000
    5.0710    2.4000    3.6610 N   0  0  0  0  0  0  0  0  0  0  0  0
    5.1950    1.8520    2.3550 C   0  0  0  0  0  0  0  0  0  0  0  0
    5.6160    2.6110    1.3310 N   0  0  0  0  0  0  0  0  0  0  0  0
    5.6920    2.0350    0.1320 C   0  0  0  0  0  0  0  0  0  0  0  0
    6.1120    2.8220   -0.9220 N   0  0  0  0  0  0  0  0  0  0  0  0
    5.3560    0.7720   -0.1360 N   0  0  0  0  0  0  0  0  0  0  0  0
    4.9460    0.0330    0.8970 C   0  0  0  0  0  0  0  0  0  0  0  0
    4.8390    0.5320    2.1730 C   0  0  0  0  0  3  0  0  0  0  0  0
    4.8210    1.7920    4.3950 H   0  0  0  0  0  0  0  0  0  0  0  0
    6.3680    3.7590   -0.7640 H   0  0  0  0  0  0  0  0  0  0  0  0
    6.1540    2.4460   -1.8310 H   0  0  0  0  0  0  0  0  0  0  0  0
    5.5960    6.4850    4.6740 C   0  0  0  0  0  0  0  0  0  0  0  0
    6.6620    5.5890    4.8060 C   0  0  0  0  0  3  0  0  0  0  0  0
    6.5240    4.2350    4.4530 C   0  0  0  0  0  0  0  0  0  0  0  0
    7.7120    3.3250    4.6190 C   0  0  0  0  0  1  0  0  0  0  0  0
    5.2860    3.7670    3.9750 C   0  0  0  0  0  0  0  0  0  0  0  0
    4.2160    4.6700    3.8500 C   0  0  0  0  0  3  0  0  0  0  0  0
    4.3590    6.0200    4.1910 C   0  0  0  0  0  0  0  0  0  0  0  0
    6.8820    8.4980    4.7420 C   0  0  0  0  0  1  0  0  0  0  0  0
    5.6590    7.8210    4.9870 O   0  0  0  0  0  0  0  0  0  0  0  0
    3.3610    6.9580    4.0890 O   0  0  0  0  0  0  0  0  0  0  0  0
    2.7990    7.1850    2.8050 C   0  0  0  0  0  1  0  0  0  0  0  0
    4.5770   -1.2830    0.6160 N   0  0  0  0  0  0  0  0  0  0  0  0
    3.9640   -1.4740   -0.1310 H   0  0  0  0  0  0  0  0  0  0  0  0
    4.9300   -2.0200    1.1650 H   0  0  0  0  0  0  0  0  0  0  0  0
  1 16  1  0  0  0  0
  1  9  1  0  0  0  0
  2  1  1  0  0  0  0
  3  2  1  0  0  0  0
  4  3  2  0  0  0  0
  5 10  1  0  0  0  0
  5  4  1  0  0  0  0
  6  4  1  0  0  0  0
  6  7  2  0  0  0  0
  7  8  1  0  0  0  0
  8  2  2  0  0  0  0
 11  5  1  0  0  0  0
 12 13  1  0  0  0  0
 12 20  1  0  0  0  0
 14 15  1  0  0  0  0
 14 13  2  0  0  0  0
 16 14  1  0  0  0  0
 17 16  2  0  0  0  0
 17 18  1  0  0  0  0
 18 12  2  0  0  0  0
 19 20  1  0  0  0  0
 21 18  1  0  0  0  0
 22 21  1  0  0  0  0
 23  7  1  0  0  0  0
 23 25  1  0  0  0  0
 24 23  1  0  0  0  0
M  END
>  <MODEL>
19

>  <REMARK>
 VINA RESULT:    -6.935      3.410      5.565
 INTER + INTRA:          -8.739
 INTER:                  -8.201
 INTRA:                  -0.538
 UNBOUND:                -0.385
  Name = 
  7 active torsions:
  status: ('A' for Active; 'I' for Inactive)
    1  A    between atoms: C_1  and  O_2
    2  A    between atoms: O_2  and  C_3
    3  A    between atoms: C_5  and  C_6
    4  A    between atoms: C_7  and  N_8
    5  A    between atoms: C_14  and  N_15
    6  A    between atoms: C_18  and  O_19
    7  A    between atoms: O_19  and  C_20
                            x       y       z     vdW  Elec       q    Type
                         _______ _______ _______ _____ _____    ______ ____

>  <TORSDO>
F 4

$$$$
=
 OpenBabel11202510543D

 25 26  0  0  0  0  0  0  0  0999 V2000
    3.4110    4.9500    1.7570 N   0  0  0  0  0  0  0  0  0  0  0  0
    3.9780    5.5120    2.9330 C   0  0  0  0  0  0  0  0  0  0  0  0
    5.0510    4.9520    3.5120 N   0  0  0  0  0  0  0  0  0  0  0  0
    5.5180    5.5240    4.6210 C   0  0  0  0  0  0  0  0  0  0  0  0
    6.6130    4.9360    5.2230 N   0  0  0  0  0  0  0  0  0  0  0  0
    4.9870    6.5930    5.2160 N   0  0  0  0  0  0  0  0  0  0  0  0
    3.9250    7.1390    4.6200 C   0  0  0  0  0  0  0  0  0  0  0  0
    3.3710    6.6290    3.4710 C   0  0  0  0  0  3  0  0  0  0  0  0
    2.6640    5.4300    1.3290 H   0  0  0  0  0  0  0  0  0  0  0  0
    7.0330    4.1450    4.8140 H   0  0  0  0  0  0  0  0  0  0  0  0
    6.9740    5.3080    6.0600 H   0  0  0  0  0  0  0  0  0  0  0  0
    4.8660    1.3820   -0.0170 C   0  0  0  0  0  0  0  0  0  0  0  0
    3.9450    1.3160    1.0340 C   0  0  0  0  0  3  0  0  0  0  0  0
    3.4260    2.4820    1.6230 C   0  0  0  0  0  0  0  0  0  0  0  0
    2.4370    2.3390    2.7490 C   0  0  0  0  0  1  0  0  0  0  0  0
    3.8530    3.7400    1.1600 C   0  0  0  0  0  0  0  0  0  0  0  0
    4.7840    3.8020    0.1080 C   0  0  0  0  0  3  0  0  0  0  0  0
    5.2900    2.6390   -0.4840 C   0  0  0  0  0  0  0  0  0  0  0  0
    5.3320   -0.9610    0.0200 C   0  0  0  0  0  1  0  0  0  0  0  0
    5.4060    0.2890   -0.6490 O   0  0  0  0  0  0  0  0  0  0  0  0
    6.1950    2.6240   -1.5180 O   0  0  0  0  0  0  0  0  0  0  0  0
    7.1800    3.6460   -1.5470 C   0  0  0  0  0  1  0  0  0  0  0  0
    3.3560    8.2470    5.2490 N   0  0  0  0  0  0  0  0  0  0  0  0
    3.7970    8.6480    6.0340 H   0  0  0  0  0  0  0  0  0  0  0  0
    2.5150    8.6290    4.9090 H   0  0  0  0  0  0  0  0  0  0  0  0
  1  2  1  0  0  0  0
  2  8  2  0  0  0  0
  2  3  1  0  0  0  0
  3  4  2  0  0  0  0
  4  6  1  0  0  0  0
  4  5  1  0  0  0  0
  5 11  1  0  0  0  0
  7  6  2  0  0  0  0
  7 23  1  0  0  0  0
  8  7  1  0  0  0  0
  9  1  1  0  0  0  0
 10  5  1  0  0  0  0
 12 13  1  0  0  0  0
 13 14  2  0  0  0  0
 14 15  1  0  0  0  0
 16 14  1  0  0  0  0
 16  1  1  0  0  0  0
 17 16  2  0  0  0  0
 18 12  2  0  0  0  0
 18 17  1  0  0  0  0
 20 12  1  0  0  0  0
 20 19  1  0  0  0  0
 21 18  1  0  0  0  0
 22 21  1  0  0  0  0
 23 24  1  0  0  0  0
 25 23  1  0  0  0  0
M  END
>  <MODEL>
20

>  <REMARK>
 VINA RESULT:    -6.914      4.589      6.204
 INTER + INTRA:          -8.715
 INTER:                  -8.235
 INTRA:                  -0.480
 UNBOUND:                -0.385
  Name = 
  7 active torsions:
  status: ('A' for Active; 'I' for Inactive)
    1  A    between atoms: C_1  and  O_2
    2  A    between atoms: O_2  and  C_3
    3  A    between atoms: C_5  and  C_6
    4  A    between atoms: C_7  and  N_8
    5  A    between atoms: C_14  and  N_15
    6  A    between atoms: C_18  and  O_19
    7  A    between atoms: O_19  and  C_20
                            x       y       z     vdW  Elec       q    Type
                         _______ _______ _______ _____ _____    ______ ____

>  <TORSDO>
F 4

$$$$
